REMARK  0 active torsions:
REMARK  status: ('A' for Active; 'I' for Inactive)
REMARK       I    between atoms: C3*_2  and  O3*_18 
REMARK       I    between atoms: C2*_3  and  O2*_16 
REMARK       I    between atoms: C4*_4  and  C5*_20 
REMARK       I    between atoms: C1*_5  and  N_6 
REMARK       I    between atoms: C_10  and  C_13 
REMARK       I    between atoms: N_12  and  C_13 
REMARK       I    between atoms: C5*_20  and  O5*_21 
ROOT
ATOM      1  O4* UNL     1       1.392  -0.553  -1.002  0.00  0.00    -0.352 OA
ATOM      2  C3* UNL     1       3.043   0.264   0.506  0.00  0.00     0.182 C 
ATOM      3  C2* UNL     1       1.729   0.969   0.780  0.00  0.00     0.200 C 
ATOM      4  C4* UNL     1       2.598  -0.947  -0.307  0.00  0.00     0.179 C 
ATOM      5  C1* UNL     1       0.987   0.745  -0.528  0.00  0.00     0.279 C 
ATOM      6  N   UNL     1      -0.469   0.791  -0.402  0.00  0.00    -0.229 N 
ATOM      7  N   UNL     1      -1.166  -0.303  -0.061  0.00  0.00    -0.143 NA
ATOM      8  N   UNL     1      -2.535   1.501  -0.385  0.00  0.00    -0.216 NA
ATOM      9  C   UNL     1      -1.289   1.859  -0.593  0.00  0.00     0.234 A 
ATOM     10  C   UNL     1      -2.410   0.179  -0.065  0.00  0.00     0.238 A 
ATOM     11  O   UNL     1      -3.441  -1.854   0.564  0.00  0.00    -0.264 OA
ATOM     12  N   UNL     1      -4.804  -0.060   0.220  0.00  0.00    -0.363 N 
ATOM     13  C   UNL     1      -3.536  -0.648   0.248  0.00  0.00     0.288 C 
ATOM     14  H   UNL     1      -4.939   0.917  -0.020  0.00  0.00     0.159 HD
ATOM     15  H   UNL     1      -5.634  -0.599   0.441  0.00  0.00     0.159 HD
ATOM     16  O2* UNL     1       1.888   2.343   1.068  0.00  0.00    -0.388 OA
ATOM     17  H2* UNL     1       2.398   2.745   0.344  0.00  0.00     0.210 HD
ATOM     18  O3* UNL     1       3.865   1.093  -0.315  0.00  0.00    -0.390 OA
ATOM     19  H3* UNL     1       4.677   0.594  -0.510  0.00  0.00     0.210 HD
ATOM     20  C5* UNL     1       2.279  -2.159   0.558  0.00  0.00     0.198 C 
ATOM     21  O5* UNL     1       1.868  -3.221  -0.284  0.00  0.00    -0.398 OA
ATOM     22  H5* UNL     1       1.088  -2.918  -0.779  0.00  0.00     0.209 HD
ENDROOT
TORSDOF 6
