MODEL 1
REMARK VINA RESULT:      -7.0      0.000      0.000
REMARK  4 active torsions:
REMARK  status: ('A' for Active; 'I' for Inactive)
REMARK    1  A    between atoms: C_8  and  C_25 
REMARK    2  A    between atoms: C_20  and  C_30 
REMARK    3  A    between atoms: C_25  and  C_26 
REMARK    4  A    between atoms: C_26  and  O_28 
ROOT
HETATM    1  O   UNL     1      42.436 -19.261  39.689  1.00  0.00    -0.372 OA
HETATM    2  O   UNL     1      41.149 -21.375  38.362  1.00  0.00    -0.312 OA
HETATM    3  O   UNL     1      38.404 -16.374  37.190  1.00  0.00    -0.292 OA
HETATM    4  O   UNL     1      41.265 -21.927  36.119  1.00  0.00    -0.264 OA
HETATM    5  C   UNL     1      40.396 -18.463  40.761  1.00  0.00     0.016 C 
HETATM    6  C   UNL     1      39.899 -19.494  38.095  1.00  0.00     0.056 C 
HETATM    7  C   UNL     1      38.951 -18.371  38.502  1.00  0.00     0.033 C 
HETATM    8  C   UNL     1      39.712 -17.563  39.632  1.00  0.00     0.026 C 
HETATM    9  C   UNL     1      41.160 -19.714  40.206  1.00  0.00     0.165 C 
HETATM   10  C   UNL     1      40.364 -20.452  39.142  1.00  0.00     0.168 C 
HETATM   11  C   UNL     1      39.523 -20.395  36.936  1.00  0.00     0.069 C 
HETATM   12  C   UNL     1      41.622 -17.775  41.278  1.00  0.00    -0.037 C 
HETATM   13  C   UNL     1      42.730 -18.015  40.310  1.00  0.00     0.153 C 
HETATM   14  C   UNL     1      39.419 -18.933  41.849  1.00  0.00     0.023 C 
HETATM   15  C   UNL     1      38.787 -17.544  37.192  1.00  0.00     0.158 C 
HETATM   16  C   UNL     1      37.550 -18.829  38.924  1.00  0.00     0.025 C 
HETATM   17  C   UNL     1      42.051 -17.191  42.405  1.00  0.00    -0.069 C 
HETATM   18  C   UNL     1      43.955 -17.992  41.208  1.00  0.00     0.050 C 
HETATM   19  C   UNL     1      40.743 -21.308  37.033  1.00  0.00     0.272 C 
HETATM   20  C   UNL     1      43.562 -17.050  42.371  1.00  0.00     0.052 C 
HETATM   21  C   UNL     1      39.396 -19.496  35.745  1.00  0.00    -0.003 C 
HETATM   22  C   UNL     1      38.290 -21.299  37.042  1.00  0.00     0.031 C 
HETATM   23  C   UNL     1      39.054 -18.200  35.859  1.00  0.00     0.048 C 
HETATM   24  C   UNL     1      41.297 -16.817  43.632  1.00  0.00     0.044 C 
ENDROOT
BRANCH  20  25
HETATM   25  C   UNL     1      43.978 -15.650  42.132  1.00  0.00    -0.026 A 
HETATM   26  C   UNL     1      43.495 -14.783  41.127  1.00  0.00     0.034 A 
HETATM   27  C   UNL     1      44.170 -13.597  41.296  1.00  0.00     0.142 A 
HETATM   28  O   UNL     1      45.035 -13.684  42.341  1.00  0.00    -0.334 OA
HETATM   29  C   UNL     1      44.911 -14.940  42.845  1.00  0.00     0.149 A 
ENDBRANCH  20  25
BRANCH   8  30
HETATM   30  C   UNL     1      38.900 -16.411  40.255  1.00  0.00     0.118 C 
BRANCH  30  31
HETATM   31  C   UNL     1      39.737 -15.173  40.406  1.00  0.00     0.258 C 
HETATM   32  O   UNL     1      39.767 -14.440  41.384  1.00  0.00    -0.265 OA
BRANCH  31  33
HETATM   33  O   UNL     1      40.457 -15.006  39.257  1.00  0.00    -0.326 OA
HETATM   34  C   UNL     1      40.291 -13.745  38.602  1.00  0.00     0.213 C 
ENDBRANCH  31  33
ENDBRANCH  30  31
ENDBRANCH   8  30
TORSDOF 4
ENDMDL
MODEL 2
REMARK VINA RESULT:      -6.7      2.082      7.088
REMARK  4 active torsions:
REMARK  status: ('A' for Active; 'I' for Inactive)
REMARK    1  A    between atoms: C_8  and  C_25 
REMARK    2  A    between atoms: C_20  and  C_30 
REMARK    3  A    between atoms: C_25  and  C_26 
REMARK    4  A    between atoms: C_26  and  O_28 
ROOT
HETATM    1  O   UNL     1      43.506 -16.650  41.023  1.00  0.00    -0.372 OA
HETATM    2  O   UNL     1      44.769 -14.353  42.030  1.00  0.00    -0.312 OA
HETATM    3  O   UNL     1      39.448 -14.831  44.349  1.00  0.00    -0.292 OA
HETATM    4  O   UNL     1      45.734 -14.057  44.110  1.00  0.00    -0.264 OA
HETATM    5  C   UNL     1      41.514 -15.446  40.295  1.00  0.00     0.016 C 
HETATM    6  C   UNL     1      42.612 -14.359  42.750  1.00  0.00     0.056 C 
HETATM    7  C   UNL     1      41.097 -14.217  42.643  1.00  0.00     0.033 C 
HETATM    8  C   UNL     1      40.638 -15.340  41.627  1.00  0.00     0.026 C 
HETATM    9  C   UNL     1      43.059 -15.359  40.537  1.00  0.00     0.165 C 
HETATM   10  C   UNL     1      43.431 -14.248  41.506  1.00  0.00     0.168 C 
HETATM   11  C   UNL     1      43.366 -13.500  43.745  1.00  0.00     0.069 C 
HETATM   12  C   UNL     1      41.533 -16.865  39.816  1.00  0.00    -0.037 C 
HETATM   13  C   UNL     1      42.536 -17.614  40.626  1.00  0.00     0.153 C 
HETATM   14  C   UNL     1      41.130 -14.415  39.222  1.00  0.00     0.023 C 
HETATM   15  C   UNL     1      40.605 -14.494  44.095  1.00  0.00     0.158 C 
HETATM   16  C   UNL     1      40.605 -12.816  42.260  1.00  0.00     0.025 C 
HETATM   17  C   UNL     1      41.070 -17.589  38.788  1.00  0.00    -0.069 C 
HETATM   18  C   UNL     1      43.014 -18.674  39.649  1.00  0.00     0.050 C 
HETATM   19  C   UNL     1      44.760 -14.004  43.376  1.00  0.00     0.272 C 
HETATM   20  C   UNL     1      41.800 -18.919  38.722  1.00  0.00     0.052 C 
HETATM   21  C   UNL     1      42.812 -13.853  45.091  1.00  0.00    -0.003 C 
HETATM   22  C   UNL     1      43.392 -11.977  43.574  1.00  0.00     0.031 C 
HETATM   23  C   UNL     1      41.553 -14.299  45.253  1.00  0.00     0.048 C 
HETATM   24  C   UNL     1      40.101 -17.220  37.721  1.00  0.00     0.044 C 
ENDROOT
BRANCH  20  25
HETATM   25  C   UNL     1      40.948 -20.037  39.186  1.00  0.00    -0.026 A 
HETATM   26  C   UNL     1      40.262 -20.970  38.378  1.00  0.00     0.034 A 
HETATM   27  C   UNL     1      39.609 -21.813  39.247  1.00  0.00     0.142 A 
HETATM   28  O   UNL     1      39.853 -21.453  40.534  1.00  0.00    -0.334 OA
HETATM   29  C   UNL     1      40.670 -20.369  40.487  1.00  0.00     0.149 A 
ENDBRANCH  20  25
BRANCH   8  30
HETATM   30  C   UNL     1      39.131 -15.335  41.302  1.00  0.00     0.118 C 
BRANCH  30  31
HETATM   31  C   UNL     1      38.528 -16.699  41.485  1.00  0.00     0.258 C 
HETATM   32  O   UNL     1      38.693 -17.435  42.448  1.00  0.00    -0.265 OA
BRANCH  31  33
HETATM   33  O   UNL     1      37.766 -16.977  40.386  1.00  0.00    -0.326 OA
HETATM   34  C   UNL     1      37.519 -18.365  40.141  1.00  0.00     0.213 C 
ENDBRANCH  31  33
ENDBRANCH  30  31
ENDBRANCH   8  30
TORSDOF 4
ENDMDL
MODEL 3
REMARK VINA RESULT:      -6.6      2.170      3.413
REMARK  4 active torsions:
REMARK  status: ('A' for Active; 'I' for Inactive)
REMARK    1  A    between atoms: C_8  and  C_25 
REMARK    2  A    between atoms: C_20  and  C_30 
REMARK    3  A    between atoms: C_25  and  C_26 
REMARK    4  A    between atoms: C_26  and  O_28 
ROOT
HETATM    1  O   UNL     1      42.259 -16.373  38.060  1.00  0.00    -0.372 OA
HETATM    2  O   UNL     1      42.335 -17.662  35.566  1.00  0.00    -0.312 OA
HETATM    3  O   UNL     1      38.210 -20.081  38.890  1.00  0.00    -0.292 OA
HETATM    4  O   UNL     1      40.871 -17.415  33.793  1.00  0.00    -0.264 OA
HETATM    5  C   UNL     1      42.477 -18.443  39.330  1.00  0.00     0.016 C 
HETATM    6  C   UNL     1      40.905 -18.801  36.918  1.00  0.00     0.056 C 
HETATM    7  C   UNL     1      40.488 -19.721  38.061  1.00  0.00     0.033 C 
HETATM    8  C   UNL     1      40.982 -19.003  39.383  1.00  0.00     0.026 C 
HETATM    9  C   UNL     1      42.835 -17.702  37.997  1.00  0.00     0.165 C 
HETATM   10  C   UNL     1      42.350 -18.455  36.769  1.00  0.00     0.168 C 
HETATM   11  C   UNL     1      40.476 -19.137  35.504  1.00  0.00     0.069 C 
HETATM   12  C   UNL     1      42.588 -17.225  40.195  1.00  0.00    -0.037 C 
HETATM   13  C   UNL     1      42.046 -16.064  39.432  1.00  0.00     0.153 C 
HETATM   14  C   UNL     1      43.546 -19.515  39.594  1.00  0.00     0.023 C 
HETATM   15  C   UNL     1      38.935 -19.754  37.949  1.00  0.00     0.158 C 
HETATM   16  C   UNL     1      40.980 -21.168  37.937  1.00  0.00     0.025 C 
HETATM   17  C   UNL     1      43.184 -16.849  41.335  1.00  0.00    -0.069 C 
HETATM   18  C   UNL     1      42.857 -14.905  39.987  1.00  0.00     0.050 C 
HETATM   19  C   UNL     1      41.195 -17.971  34.830  1.00  0.00     0.272 C 
HETATM   20  C   UNL     1      43.200 -15.334  41.434  1.00  0.00     0.052 C 
HETATM   21  C   UNL     1      38.978 -19.138  35.522  1.00  0.00    -0.003 C 
HETATM   22  C   UNL     1      40.991 -20.416  34.834  1.00  0.00     0.031 C 
HETATM   23  C   UNL     1      38.275 -19.425  36.632  1.00  0.00     0.048 C 
HETATM   24  C   UNL     1      43.884 -17.668  42.361  1.00  0.00     0.044 C 
ENDROOT
BRANCH  20  25
HETATM   25  C   UNL     1      42.216 -14.837  42.421  1.00  0.00    -0.026 A 
HETATM   26  C   UNL     1      42.014 -15.321  43.733  1.00  0.00     0.034 A 
HETATM   27  C   UNL     1      41.002 -14.556  44.265  1.00  0.00     0.142 A 
HETATM   28  O   UNL     1      40.573 -13.636  43.361  1.00  0.00    -0.334 OA
HETATM   29  C   UNL     1      41.319 -13.815  42.240  1.00  0.00     0.149 A 
ENDBRANCH  20  25
BRANCH   8  30
HETATM   30  C   UNL     1      40.733 -19.802  40.678  1.00  0.00     0.118 C 
BRANCH  30  31
HETATM   31  C   UNL     1      40.078 -18.950  41.727  1.00  0.00     0.258 C 
HETATM   32  O   UNL     1      40.189 -19.086  42.938  1.00  0.00    -0.265 OA
BRANCH  31  33
HETATM   33  O   UNL     1      39.332 -17.996  41.094  1.00  0.00    -0.326 OA
HETATM   34  C   UNL     1      39.081 -16.807  41.850  1.00  0.00     0.213 C 
ENDBRANCH  31  33
ENDBRANCH  30  31
ENDBRANCH   8  30
TORSDOF 4
ENDMDL
MODEL 4
REMARK VINA RESULT:      -6.6      1.735      7.176
REMARK  4 active torsions:
REMARK  status: ('A' for Active; 'I' for Inactive)
REMARK    1  A    between atoms: C_8  and  C_25 
REMARK    2  A    between atoms: C_20  and  C_30 
REMARK    3  A    between atoms: C_25  and  C_26 
REMARK    4  A    between atoms: C_26  and  O_28 
ROOT
HETATM    1  O   UNL     1      41.101 -14.726  39.121  1.00  0.00    -0.372 OA
HETATM    2  O   UNL     1      41.394 -13.160  41.435  1.00  0.00    -0.312 OA
HETATM    3  O   UNL     1      44.169 -18.232  42.143  1.00  0.00    -0.292 OA
HETATM    4  O   UNL     1      43.250 -11.961  42.113  1.00  0.00    -0.264 OA
HETATM    5  C   UNL     1      40.252 -16.665  40.332  1.00  0.00     0.016 C 
HETATM    6  C   UNL     1      42.259 -15.222  41.850  1.00  0.00     0.056 C 
HETATM    7  C   UNL     1      42.239 -16.721  42.133  1.00  0.00     0.033 C 
HETATM    8  C   UNL     1      41.578 -17.384  40.857  1.00  0.00     0.026 C 
HETATM    9  C   UNL     1      40.342 -15.101  40.299  1.00  0.00     0.165 C 
HETATM   10  C   UNL     1      40.967 -14.531  41.561  1.00  0.00     0.168 C 
HETATM   11  C   UNL     1      42.944 -14.293  42.832  1.00  0.00     0.069 C 
HETATM   12  C   UNL     1      40.146 -16.825  38.847  1.00  0.00    -0.037 C 
HETATM   13  C   UNL     1      41.037 -15.815  38.208  1.00  0.00     0.153 C 
HETATM   14  C   UNL     1      38.987 -17.062  41.110  1.00  0.00     0.023 C 
HETATM   15  C   UNL     1      43.748 -17.082  42.274  1.00  0.00     0.158 C 
HETATM   16  C   UNL     1      41.555 -17.120  43.446  1.00  0.00     0.025 C 
HETATM   17  C   UNL     1      39.373 -17.457  37.953  1.00  0.00    -0.069 C 
HETATM   18  C   UNL     1      40.324 -15.540  36.894  1.00  0.00     0.050 C 
HETATM   19  C   UNL     1      42.606 -12.997  42.098  1.00  0.00     0.272 C 
HETATM   20  C   UNL     1      39.587 -16.862  36.572  1.00  0.00     0.052 C 
HETATM   21  C   UNL     1      44.374 -14.733  42.881  1.00  0.00    -0.003 C 
HETATM   22  C   UNL     1      42.393 -14.147  44.255  1.00  0.00     0.031 C 
HETATM   23  C   UNL     1      44.741 -16.004  42.634  1.00  0.00     0.048 C 
HETATM   24  C   UNL     1      38.327 -18.494  38.161  1.00  0.00     0.044 C 
ENDROOT
BRANCH  20  25
HETATM   25  C   UNL     1      40.382 -17.758  35.705  1.00  0.00    -0.026 A 
HETATM   26  C   UNL     1      41.284 -18.761  36.124  1.00  0.00     0.034 A 
HETATM   27  C   UNL     1      41.781 -19.326  34.973  1.00  0.00     0.142 A 
HETATM   28  O   UNL     1      41.240 -18.731  33.877  1.00  0.00    -0.334 OA
HETATM   29  C   UNL     1      40.388 -17.777  34.333  1.00  0.00     0.149 A 
ENDBRANCH  20  25
BRANCH   8  30
HETATM   30  C   UNL     1      41.382 -18.910  40.955  1.00  0.00     0.118 C 
BRANCH  30  31
HETATM   31  C   UNL     1      41.965 -19.613  39.763  1.00  0.00     0.258 C 
HETATM   32  O   UNL     1      43.035 -19.356  39.229  1.00  0.00    -0.265 OA
BRANCH  31  33
HETATM   33  O   UNL     1      41.091 -20.589  39.376  1.00  0.00    -0.326 OA
HETATM   34  C   UNL     1      40.130 -20.981  40.361  1.00  0.00     0.213 C 
ENDBRANCH  31  33
ENDBRANCH  30  31
ENDBRANCH   8  30
TORSDOF 4
ENDMDL
MODEL 5
REMARK VINA RESULT:      -6.5      1.876      7.036
REMARK  4 active torsions:
REMARK  status: ('A' for Active; 'I' for Inactive)
REMARK    1  A    between atoms: C_8  and  C_25 
REMARK    2  A    between atoms: C_20  and  C_30 
REMARK    3  A    between atoms: C_25  and  C_26 
REMARK    4  A    between atoms: C_26  and  O_28 
ROOT
HETATM    1  O   UNL     1      38.916 -15.841  39.927  1.00  0.00    -0.372 OA
HETATM    2  O   UNL     1      38.475 -13.461  41.352  1.00  0.00    -0.312 OA
HETATM    3  O   UNL     1      44.165 -14.703  41.337  1.00  0.00    -0.292 OA
HETATM    4  O   UNL     1      38.867 -11.292  40.653  1.00  0.00    -0.264 OA
HETATM    5  C   UNL     1      40.154 -16.900  41.742  1.00  0.00     0.016 C 
HETATM    6  C   UNL     1      40.659 -14.048  41.594  1.00  0.00     0.056 C 
HETATM    7  C   UNL     1      41.846 -14.852  42.115  1.00  0.00     0.033 C 
HETATM    8  C   UNL     1      41.633 -16.322  41.568  1.00  0.00     0.026 C 
HETATM    9  C   UNL     1      39.022 -15.882  41.373  1.00  0.00     0.165 C 
HETATM   10  C   UNL     1      39.279 -14.499  41.946  1.00  0.00     0.168 C 
HETATM   11  C   UNL     1      40.614 -12.553  41.840  1.00  0.00     0.069 C 
HETATM   12  C   UNL     1      39.850 -17.850  40.624  1.00  0.00    -0.037 C 
HETATM   13  C   UNL     1      39.477 -17.048  39.424  1.00  0.00     0.153 C 
HETATM   14  C   UNL     1      39.871 -17.455  43.146  1.00  0.00     0.023 C 
HETATM   15  C   UNL     1      43.073 -14.148  41.462  1.00  0.00     0.158 C 
HETATM   16  C   UNL     1      42.048 -14.794  43.634  1.00  0.00     0.025 C 
HETATM   17  C   UNL     1      39.638 -19.160  40.443  1.00  0.00    -0.069 C 
HETATM   18  C   UNL     1      38.516 -17.976  38.700  1.00  0.00     0.050 C 
HETATM   19  C   UNL     1      39.252 -12.319  41.190  1.00  0.00     0.272 C 
HETATM   20  C   UNL     1      38.985 -19.398  39.093  1.00  0.00     0.052 C 
HETATM   21  C   UNL     1      41.831 -11.993  41.171  1.00  0.00    -0.003 C 
HETATM   22  C   UNL     1      40.513 -12.018  43.273  1.00  0.00     0.031 C 
HETATM   23  C   UNL     1      42.953 -12.715  41.004  1.00  0.00     0.048 C 
HETATM   24  C   UNL     1      39.832 -20.297  41.384  1.00  0.00     0.044 C 
ENDROOT
BRANCH  20  25
HETATM   25  C   UNL     1      39.936 -19.972  38.115  1.00  0.00    -0.026 A 
HETATM   26  C   UNL     1      40.787 -19.258  37.243  1.00  0.00     0.034 A 
HETATM   27  C   UNL     1      41.479 -20.209  36.530  1.00  0.00     0.142 A 
HETATM   28  O   UNL     1      41.104 -21.458  36.911  1.00  0.00    -0.334 OA
HETATM   29  C   UNL     1      40.163 -21.304  37.879  1.00  0.00     0.149 A 
ENDBRANCH  20  25
BRANCH   8  30
HETATM   30  C   UNL     1      42.688 -17.342  42.040  1.00  0.00     0.118 C 
BRANCH  30  31
HETATM   31  C   UNL     1      43.398 -17.971  40.876  1.00  0.00     0.258 C 
HETATM   32  O   UNL     1      43.044 -17.925  39.706  1.00  0.00    -0.265 OA
BRANCH  31  33
HETATM   33  O   UNL     1      44.510 -18.608  41.351  1.00  0.00    -0.326 OA
HETATM   34  C   UNL     1      45.036 -19.640  40.511  1.00  0.00     0.213 C 
ENDBRANCH  31  33
ENDBRANCH  30  31
ENDBRANCH   8  30
TORSDOF 4
ENDMDL
MODEL 6
REMARK VINA RESULT:      -6.5      2.323      6.979
REMARK  4 active torsions:
REMARK  status: ('A' for Active; 'I' for Inactive)
REMARK    1  A    between atoms: C_8  and  C_25 
REMARK    2  A    between atoms: C_20  and  C_30 
REMARK    3  A    between atoms: C_25  and  C_26 
REMARK    4  A    between atoms: C_26  and  O_28 
ROOT
HETATM    1  O   UNL     1      40.375 -17.320  43.045  1.00  0.00    -0.372 OA
HETATM    2  O   UNL     1      41.569 -15.392  44.702  1.00  0.00    -0.312 OA
HETATM    3  O   UNL     1      40.794 -13.177  39.372  1.00  0.00    -0.292 OA
HETATM    4  O   UNL     1      40.574 -13.557  45.695  1.00  0.00    -0.264 OA
HETATM    5  C   UNL     1      42.079 -17.135  41.310  1.00  0.00     0.016 C 
HETATM    6  C   UNL     1      41.528 -14.584  42.576  1.00  0.00     0.056 C 
HETATM    7  C   UNL     1      41.942 -14.464  41.113  1.00  0.00     0.033 C 
HETATM    8  C   UNL     1      41.607 -15.867  40.461  1.00  0.00     0.026 C 
HETATM    9  C   UNL     1      41.780 -17.026  42.844  1.00  0.00     0.165 C 
HETATM   10  C   UNL     1      42.143 -15.662  43.408  1.00  0.00     0.168 C 
HETATM   11  C   UNL     1      41.605 -13.363  43.470  1.00  0.00     0.069 C 
HETATM   12  C   UNL     1      41.139 -18.277  41.072  1.00  0.00    -0.037 C 
HETATM   13  C   UNL     1      39.930 -18.066  41.918  1.00  0.00     0.153 C 
HETATM   14  C   UNL     1      43.564 -17.481  41.126  1.00  0.00     0.023 C 
HETATM   15  C   UNL     1      41.026 -13.325  40.572  1.00  0.00     0.158 C 
HETATM   16  C   UNL     1      43.392 -14.021  40.888  1.00  0.00     0.025 C 
HETATM   17  C   UNL     1      41.145 -19.484  40.490  1.00  0.00    -0.069 C 
HETATM   18  C   UNL     1      39.479 -19.490  42.199  1.00  0.00     0.050 C 
HETATM   19  C   UNL     1      41.157 -14.065  44.750  1.00  0.00     0.272 C 
HETATM   20  C   UNL     1      39.952 -20.294  40.964  1.00  0.00     0.052 C 
HETATM   21  C   UNL     1      40.691 -12.348  42.854  1.00  0.00    -0.003 C 
HETATM   22  C   UNL     1      42.965 -12.725  43.774  1.00  0.00     0.031 C 
HETATM   23  C   UNL     1      40.432 -12.326  41.535  1.00  0.00     0.048 C 
HETATM   24  C   UNL     1      42.167 -20.113  39.610  1.00  0.00     0.044 C 
ENDROOT
BRANCH  20  25
HETATM   25  C   UNL     1      38.908 -20.399  39.921  1.00  0.00    -0.026 A 
HETATM   26  C   UNL     1      38.932 -21.229  38.779  1.00  0.00     0.034 A 
HETATM   27  C   UNL     1      37.756 -20.984  38.110  1.00  0.00     0.142 A 
HETATM   28  O   UNL     1      37.015 -20.056  38.771  1.00  0.00    -0.334 OA
HETATM   29  C   UNL     1      37.725 -19.705  39.874  1.00  0.00     0.149 A 
ENDBRANCH  20  25
BRANCH   8  30
HETATM   30  C   UNL     1      42.020 -16.002  38.982  1.00  0.00     0.118 C 
BRANCH  30  31
HETATM   31  C   UNL     1      40.872 -16.474  38.137  1.00  0.00     0.258 C 
HETATM   32  O   UNL     1      39.713 -16.090  38.218  1.00  0.00    -0.265 OA
BRANCH  31  33
HETATM   33  O   UNL     1      41.345 -17.408  37.261  1.00  0.00    -0.326 OA
HETATM   34  C   UNL     1      40.393 -18.383  36.824  1.00  0.00     0.213 C 
ENDBRANCH  31  33
ENDBRANCH  30  31
ENDBRANCH   8  30
TORSDOF 4
ENDMDL
MODEL 7
REMARK VINA RESULT:      -6.4      4.155      7.234
REMARK  4 active torsions:
REMARK  status: ('A' for Active; 'I' for Inactive)
REMARK    1  A    between atoms: C_8  and  C_25 
REMARK    2  A    between atoms: C_20  and  C_30 
REMARK    3  A    between atoms: C_25  and  C_26 
REMARK    4  A    between atoms: C_26  and  O_28 
ROOT
HETATM    1  O   UNL     1      40.030 -18.100  44.561  1.00  0.00    -0.372 OA
HETATM    2  O   UNL     1      38.789 -18.133  47.080  1.00  0.00    -0.312 OA
HETATM    3  O   UNL     1      36.661 -22.449  43.798  1.00  0.00    -0.292 OA
HETATM    4  O   UNL     1      39.193 -19.570  48.846  1.00  0.00    -0.264 OA
HETATM    5  C   UNL     1      37.923 -18.059  43.333  1.00  0.00     0.016 C 
HETATM    6  C   UNL     1      37.748 -19.655  45.749  1.00  0.00     0.056 C 
HETATM    7  C   UNL     1      36.844 -20.148  44.624  1.00  0.00     0.033 C 
HETATM    8  C   UNL     1      37.490 -19.596  43.288  1.00  0.00     0.026 C 
HETATM    9  C   UNL     1      38.658 -17.639  44.651  1.00  0.00     0.165 C 
HETATM   10  C   UNL     1      37.974 -18.185  45.893  1.00  0.00     0.168 C 
HETATM   11  C   UNL     1      37.478 -20.111  47.168  1.00  0.00     0.069 C 
HETATM   12  C   UNL     1      39.110 -17.845  42.444  1.00  0.00    -0.037 C 
HETATM   13  C   UNL     1      40.327 -18.287  43.182  1.00  0.00     0.153 C 
HETATM   14  C   UNL     1      36.760 -17.084  43.092  1.00  0.00     0.023 C 
HETATM   15  C   UNL     1      36.944 -21.699  44.734  1.00  0.00     0.158 C 
HETATM   16  C   UNL     1      35.363 -19.780  44.777  1.00  0.00     0.025 C 
HETATM   17  C   UNL     1      39.412 -17.220  41.298  1.00  0.00    -0.069 C 
HETATM   18  C   UNL     1      41.403 -17.381  42.605  1.00  0.00     0.050 C 
HETATM   19  C   UNL     1      38.592 -19.295  47.820  1.00  0.00     0.272 C 
HETATM   20  C   UNL     1      40.918 -17.076  41.168  1.00  0.00     0.052 C 
HETATM   21  C   UNL     1      37.603 -21.603  47.148  1.00  0.00    -0.003 C 
HETATM   22  C   UNL     1      36.174 -19.705  47.864  1.00  0.00     0.031 C 
HETATM   23  C   UNL     1      37.354 -22.328  46.043  1.00  0.00     0.048 C 
HETATM   24  C   UNL     1      38.517 -16.592  40.289  1.00  0.00     0.044 C 
ENDROOT
BRANCH  20  25
HETATM   25  C   UNL     1      41.476 -18.014  40.169  1.00  0.00    -0.026 A 
HETATM   26  C   UNL     1      41.190 -19.392  40.050  1.00  0.00     0.034 A 
HETATM   27  C   UNL     1      41.939 -19.842  38.987  1.00  0.00     0.142 A 
HETATM   28  O   UNL     1      42.664 -18.826  38.451  1.00  0.00    -0.334 OA
HETATM   29  C   UNL     1      42.376 -17.715  39.178  1.00  0.00     0.149 A 
ENDBRANCH  20  25
BRANCH   8  30
HETATM   30  C   UNL     1      36.690 -19.911  42.009  1.00  0.00     0.118 C 
BRANCH  30  31
HETATM   31  C   UNL     1      37.577 -20.475  40.936  1.00  0.00     0.258 C 
HETATM   32  O   UNL     1      38.581 -21.151  41.114  1.00  0.00    -0.265 OA
BRANCH  31  33
HETATM   33  O   UNL     1      37.068 -20.101  39.725  1.00  0.00    -0.326 OA
HETATM   34  C   UNL     1      37.879 -20.420  38.590  1.00  0.00     0.213 C 
ENDBRANCH  31  33
ENDBRANCH  30  31
ENDBRANCH   8  30
TORSDOF 4
ENDMDL
MODEL 8
REMARK VINA RESULT:      -6.2     17.966     20.953
REMARK  4 active torsions:
REMARK  status: ('A' for Active; 'I' for Inactive)
REMARK    1  A    between atoms: C_8  and  C_25 
REMARK    2  A    between atoms: C_20  and  C_30 
REMARK    3  A    between atoms: C_25  and  C_26 
REMARK    4  A    between atoms: C_26  and  O_28 
ROOT
HETATM    1  O   UNL     1      59.052 -22.628  43.393  1.00  0.00    -0.372 OA
HETATM    2  O   UNL     1      56.772 -22.274  41.792  1.00  0.00    -0.312 OA
HETATM    3  O   UNL     1      59.268 -27.383  40.534  1.00  0.00    -0.292 OA
HETATM    4  O   UNL     1      54.695 -23.260  42.037  1.00  0.00    -0.264 OA
HETATM    5  C   UNL     1      60.523 -23.074  41.500  1.00  0.00     0.016 C 
HETATM    6  C   UNL     1      57.859 -24.144  41.088  1.00  0.00     0.056 C 
HETATM    7  C   UNL     1      58.955 -24.956  40.407  1.00  0.00     0.033 C 
HETATM    8  C   UNL     1      60.283 -24.625  41.202  1.00  0.00     0.026 C 
HETATM    9  C   UNL     1      59.246 -22.311  41.992  1.00  0.00     0.165 C 
HETATM   10  C   UNL     1      58.014 -22.660  41.172  1.00  0.00     0.168 C 
HETATM   11  C   UNL     1      56.421 -24.322  40.643  1.00  0.00     0.069 C 
HETATM   12  C   UNL     1      61.275 -22.919  42.787  1.00  0.00    -0.037 C 
HETATM   13  C   UNL     1      60.304 -23.062  43.910  1.00  0.00     0.153 C 
HETATM   14  C   UNL     1      61.123 -22.304  40.314  1.00  0.00     0.023 C 
HETATM   15  C   UNL     1      58.493 -26.429  40.612  1.00  0.00     0.158 C 
HETATM   16  C   UNL     1      59.082 -24.729  38.896  1.00  0.00     0.025 C 
HETATM   17  C   UNL     1      62.481 -22.516  43.209  1.00  0.00    -0.069 C 
HETATM   18  C   UNL     1      60.921 -22.183  44.985  1.00  0.00     0.050 C 
HETATM   19  C   UNL     1      55.826 -23.271  41.578  1.00  0.00     0.272 C 
HETATM   20  C   UNL     1      62.441 -22.237  44.701  1.00  0.00     0.052 C 
HETATM   21  C   UNL     1      56.094 -25.763  40.888  1.00  0.00    -0.003 C 
HETATM   22  C   UNL     1      56.009 -23.927  39.221  1.00  0.00     0.031 C 
HETATM   23  C   UNL     1      57.035 -26.724  40.867  1.00  0.00     0.048 C 
HETATM   24  C   UNL     1      63.711 -22.213  42.429  1.00  0.00     0.044 C 
ENDROOT
BRANCH  20  25
HETATM   25  C   UNL     1      63.126 -23.295  45.476  1.00  0.00    -0.026 A 
HETATM   26  C   UNL     1      63.351 -24.630  45.073  1.00  0.00     0.034 A 
HETATM   27  C   UNL     1      64.017 -25.231  46.115  1.00  0.00     0.142 A 
HETATM   28  O   UNL     1      64.213 -24.349  47.129  1.00  0.00    -0.334 OA
HETATM   29  C   UNL     1      63.666 -23.171  46.731  1.00  0.00     0.149 A 
ENDBRANCH  20  25
BRANCH   8  30
HETATM   30  C   UNL     1      61.554 -25.285  40.632  1.00  0.00     0.118 C 
BRANCH  30  31
HETATM   31  C   UNL     1      62.326 -25.999  41.705  1.00  0.00     0.258 C 
HETATM   32  O   UNL     1      61.859 -26.758  42.543  1.00  0.00    -0.265 OA
BRANCH  31  33
HETATM   33  O   UNL     1      63.642 -25.652  41.584  1.00  0.00    -0.326 OA
HETATM   34  C   UNL     1      64.056 -25.251  40.273  1.00  0.00     0.213 C 
ENDBRANCH  31  33
ENDBRANCH  30  31
ENDBRANCH   8  30
TORSDOF 4
ENDMDL
MODEL 9
REMARK VINA RESULT:      -6.1      2.112      4.849
REMARK  4 active torsions:
REMARK  status: ('A' for Active; 'I' for Inactive)
REMARK    1  A    between atoms: C_8  and  C_25 
REMARK    2  A    between atoms: C_20  and  C_30 
REMARK    3  A    between atoms: C_25  and  C_26 
REMARK    4  A    between atoms: C_26  and  O_28 
ROOT
HETATM    1  O   UNL     1      37.882 -16.742  38.492  1.00  0.00    -0.372 OA
HETATM    2  O   UNL     1      37.804 -19.234  37.199  1.00  0.00    -0.312 OA
HETATM    3  O   UNL     1      42.459 -18.990  40.691  1.00  0.00    -0.292 OA
HETATM    4  O   UNL     1      37.155 -21.272  38.078  1.00  0.00    -0.264 OA
HETATM    5  C   UNL     1      40.169 -16.259  37.797  1.00  0.00     0.016 C 
HETATM    6  C   UNL     1      39.765 -19.080  38.341  1.00  0.00     0.056 C 
HETATM    7  C   UNL     1      41.181 -18.597  38.637  1.00  0.00     0.033 C 
HETATM    8  C   UNL     1      41.056 -17.037  38.874  1.00  0.00     0.026 C 
HETATM    9  C   UNL     1      38.832 -16.986  37.424  1.00  0.00     0.165 C 
HETATM   10  C   UNL     1      39.029 -18.475  37.191  1.00  0.00     0.168 C 
HETATM   11  C   UNL     1      39.508 -20.565  38.181  1.00  0.00     0.069 C 
HETATM   12  C   UNL     1      39.506 -15.083  38.446  1.00  0.00    -0.037 C 
HETATM   13  C   UNL     1      38.310 -15.576  39.186  1.00  0.00     0.153 C 
HETATM   14  C   UNL     1      40.923 -15.932  36.499  1.00  0.00     0.023 C 
HETATM   15  C   UNL     1      41.560 -19.366  39.938  1.00  0.00     0.158 C 
HETATM   16  C   UNL     1      42.224 -18.966  37.575  1.00  0.00     0.025 C 
HETATM   17  C   UNL     1      39.560 -13.745  38.402  1.00  0.00    -0.069 C 
HETATM   18  C   UNL     1      37.373 -14.381  39.119  1.00  0.00     0.050 C 
HETATM   19  C   UNL     1      38.022 -20.442  37.855  1.00  0.00     0.272 C 
HETATM   20  C   UNL     1      38.316 -13.157  39.045  1.00  0.00     0.052 C 
HETATM   21  C   UNL     1      39.905 -21.190  39.483  1.00  0.00    -0.003 C 
HETATM   22  C   UNL     1      40.150 -21.329  37.017  1.00  0.00     0.031 C 
HETATM   23  C   UNL     1      40.844 -20.649  40.280  1.00  0.00     0.048 C 
HETATM   24  C   UNL     1      40.547 -12.850  37.740  1.00  0.00     0.044 C 
ENDROOT
BRANCH  20  25
HETATM   25  C   UNL     1      38.605 -12.582  40.378  1.00  0.00    -0.026 A 
HETATM   26  C   UNL     1      39.667 -12.935  41.240  1.00  0.00     0.034 A 
HETATM   27  C   UNL     1      39.528 -12.140  42.353  1.00  0.00     0.142 A 
HETATM   28  O   UNL     1      38.448 -11.325  42.227  1.00  0.00    -0.334 OA
HETATM   29  C   UNL     1      37.892 -11.601  41.019  1.00  0.00     0.149 A 
ENDBRANCH  20  25
BRANCH   8  30
HETATM   30  C   UNL     1      42.396 -16.315  39.117  1.00  0.00     0.118 C 
BRANCH  30  31
HETATM   31  C   UNL     1      42.362 -15.515  40.388  1.00  0.00     0.258 C 
HETATM   32  O   UNL     1      43.098 -14.580  40.670  1.00  0.00    -0.265 OA
BRANCH  31  33
HETATM   33  O   UNL     1      41.366 -16.015  41.177  1.00  0.00    -0.326 OA
HETATM   34  C   UNL     1      41.646 -16.045  42.580  1.00  0.00     0.213 C 
ENDBRANCH  31  33
ENDBRANCH  30  31
ENDBRANCH   8  30
TORSDOF 4
ENDMDL
MODEL 10
REMARK VINA RESULT:      -6.1      2.411      4.610
REMARK  4 active torsions:
REMARK  status: ('A' for Active; 'I' for Inactive)
REMARK    1  A    between atoms: C_8  and  C_25 
REMARK    2  A    between atoms: C_20  and  C_30 
REMARK    3  A    between atoms: C_25  and  C_26 
REMARK    4  A    between atoms: C_26  and  O_28 
ROOT
HETATM    1  O   UNL     1      38.466 -15.736  41.673  1.00  0.00    -0.372 OA
HETATM    2  O   UNL     1      36.971 -17.579  40.172  1.00  0.00    -0.312 OA
HETATM    3  O   UNL     1      42.545 -19.258  40.336  1.00  0.00    -0.292 OA
HETATM    4  O   UNL     1      36.239 -19.676  40.816  1.00  0.00    -0.264 OA
HETATM    5  C   UNL     1      40.119 -15.383  39.915  1.00  0.00     0.016 C 
HETATM    6  C   UNL     1      39.171 -18.124  39.990  1.00  0.00     0.056 C 
HETATM    7  C   UNL     1      40.614 -17.989  39.517  1.00  0.00     0.033 C 
HETATM    8  C   UNL     1      41.125 -16.610  40.102  1.00  0.00     0.026 C 
HETATM    9  C   UNL     1      38.624 -15.728  40.232  1.00  0.00     0.165 C 
HETATM   10  C   UNL     1      38.195 -17.054  39.624  1.00  0.00     0.168 C 
HETATM   11  C   UNL     1      38.414 -19.404  39.701  1.00  0.00     0.069 C 
HETATM   12  C   UNL     1      40.279 -14.423  41.054  1.00  0.00    -0.037 C 
HETATM   13  C   UNL     1      39.526 -14.962  42.223  1.00  0.00     0.153 C 
HETATM   14  C   UNL     1      40.185 -14.739  38.522  1.00  0.00     0.023 C 
HETATM   15  C   UNL     1      41.325 -19.211  40.173  1.00  0.00     0.158 C 
HETATM   16  C   UNL     1      40.811 -18.114  38.001  1.00  0.00     0.025 C 
HETATM   17  C   UNL     1      40.724 -13.178  41.268  1.00  0.00    -0.069 C 
HETATM   18  C   UNL     1      39.114 -13.694  42.953  1.00  0.00     0.050 C 
HETATM   19  C   UNL     1      37.090 -18.958  40.317  1.00  0.00     0.272 C 
HETATM   20  C   UNL     1      40.226 -12.674  42.611  1.00  0.00     0.052 C 
HETATM   21  C   UNL     1      39.185 -20.496  40.377  1.00  0.00    -0.003 C 
HETATM   22  C   UNL     1      38.111 -19.800  38.251  1.00  0.00     0.031 C 
HETATM   23  C   UNL     1      40.511 -20.412  40.587  1.00  0.00     0.048 C 
HETATM   24  C   UNL     1      41.474 -12.264  40.365  1.00  0.00     0.044 C 
ENDROOT
BRANCH  20  25
HETATM   25  C   UNL     1      41.305 -12.650  43.624  1.00  0.00    -0.026 A 
HETATM   26  C   UNL     1      42.352 -13.586  43.767  1.00  0.00     0.034 A 
HETATM   27  C   UNL     1      43.102 -13.153  44.836  1.00  0.00     0.142 A 
HETATM   28  O   UNL     1      42.578 -12.012  45.354  1.00  0.00    -0.334 OA
HETATM   29  C   UNL     1      41.482 -11.712  44.609  1.00  0.00     0.149 A 
ENDBRANCH  20  25
BRANCH   8  30
HETATM   30  C   UNL     1      42.557 -16.224  39.679  1.00  0.00     0.118 C 
BRANCH  30  31
HETATM   31  C   UNL     1      43.326 -15.641  40.830  1.00  0.00     0.258 C 
HETATM   32  O   UNL     1      44.035 -14.645  40.791  1.00  0.00    -0.265 OA
BRANCH  31  33
HETATM   33  O   UNL     1      43.098 -16.418  41.930  1.00  0.00    -0.326 OA
HETATM   34  C   UNL     1      44.245 -17.096  42.455  1.00  0.00     0.213 C 
ENDBRANCH  31  33
ENDBRANCH  30  31
ENDBRANCH   8  30
TORSDOF 4
ENDMDL
