MODEL 1
REMARK VINA RESULT:      -6.0      0.000      0.000
REMARK  0 active torsions:
REMARK  status: ('A' for Active; 'I' for Inactive)
REMARK       I    between atoms: C3*_2  and  O3*_18 
REMARK       I    between atoms: C2*_3  and  O2*_16 
REMARK       I    between atoms: C4*_4  and  C5*_20 
REMARK       I    between atoms: C1*_5  and  N_6 
REMARK       I    between atoms: C_10  and  C_13 
REMARK       I    between atoms: N_12  and  C_13 
REMARK       I    between atoms: C5*_20  and  O5*_21 
ROOT
ATOM      1  O4* UNL     1      42.501 -18.191  41.104  0.00  0.00    -0.352 OA
ATOM      2  C3* UNL     1      42.146 -18.189  38.750  0.00  0.00     0.182 C 
ATOM      3  C2* UNL     1      42.400 -16.768  39.214  0.00  0.00     0.200 C 
ATOM      4  C4* UNL     1      42.666 -19.012  39.924  0.00  0.00     0.179 C 
ATOM      5  C1* UNL     1      42.085 -16.874  40.698  0.00  0.00     0.279 C 
ATOM      6  N   UNL     1      42.756 -15.869  41.522  0.00  0.00    -0.229 N 
ATOM      7  N   UNL     1      43.998 -16.075  41.984  0.00  0.00    -0.143 NA
ATOM      8  N   UNL     1      43.176 -14.047  42.652  0.00  0.00    -0.216 NA
ATOM      9  C   UNL     1      42.274 -14.662  41.923  0.00  0.00     0.234 A 
ATOM     10  C   UNL     1      44.205 -14.945  42.662  0.00  0.00     0.238 A 
ATOM     11  O   UNL     1      46.397 -15.498  43.356  0.00  0.00    -0.264 OA
ATOM     12  N   UNL     1      45.567 -13.487  44.037  0.00  0.00    -0.363 N 
ATOM     13  C   UNL     1      45.435 -14.699  43.352  0.00  0.00     0.288 C 
ATOM     14  H   UNL     1      44.822 -12.798  44.059  0.00  0.00     0.159 HD
ATOM     15  H   UNL     1      46.420 -13.260  44.536  0.00  0.00     0.159 HD
ATOM     16  O2* UNL     1      41.578 -15.819  38.566  0.00  0.00    -0.388 OA
ATOM     17  H2* UNL     1      40.653 -16.100  38.672  0.00  0.00     0.210 HD
ATOM     18  O3* UNL     1      40.740 -18.404  38.624  0.00  0.00    -0.390 OA
ATOM     19  H3* UNL     1      40.611 -19.334  38.372  0.00  0.00     0.210 HD
ATOM     20  C5* UNL     1      44.139 -19.372  39.792  0.00  0.00     0.198 C 
ATOM     21  O5* UNL     1      44.527 -20.122  40.929  0.00  0.00    -0.398 OA
ATOM     22  H5* UNL     1      44.361 -19.572  41.714  0.00  0.00     0.209 HD
ENDROOT
TORSDOF 6
ENDMDL
MODEL 2
REMARK VINA RESULT:      -6.0      2.578      5.648
REMARK  0 active torsions:
REMARK  status: ('A' for Active; 'I' for Inactive)
REMARK       I    between atoms: C3*_2  and  O3*_18 
REMARK       I    between atoms: C2*_3  and  O2*_16 
REMARK       I    between atoms: C4*_4  and  C5*_20 
REMARK       I    between atoms: C1*_5  and  N_6 
REMARK       I    between atoms: C_10  and  C_13 
REMARK       I    between atoms: N_12  and  C_13 
REMARK       I    between atoms: C5*_20  and  O5*_21 
ROOT
ATOM      1  O4* UNL     1      41.777 -14.166  42.008  0.00  0.00    -0.352 OA
ATOM      2  C3* UNL     1      43.124 -12.270  41.501  0.00  0.00     0.182 C 
ATOM      3  C2* UNL     1      43.951 -13.528  41.322  0.00  0.00     0.200 C 
ATOM      4  C4* UNL     1      41.700 -12.815  41.497  0.00  0.00     0.179 C 
ATOM      5  C1* UNL     1      43.163 -14.528  42.152  0.00  0.00     0.279 C 
ATOM      6  N   UNL     1      43.353 -15.920  41.745  0.00  0.00    -0.229 N 
ATOM      7  N   UNL     1      42.609 -16.460  40.768  0.00  0.00    -0.143 NA
ATOM      8  N   UNL     1      44.105 -17.967  41.619  0.00  0.00    -0.216 NA
ATOM      9  C   UNL     1      44.239 -16.821  42.246  0.00  0.00     0.234 A 
ATOM     10  C   UNL     1      43.102 -17.699  40.731  0.00  0.00     0.238 A 
ATOM     11  O   UNL     1      41.701 -18.446  38.979  0.00  0.00    -0.264 OA
ATOM     12  N   UNL     1      43.178 -19.952  39.843  0.00  0.00    -0.363 N 
ATOM     13  C   UNL     1      42.603 -18.678  39.813  0.00  0.00     0.288 C 
ATOM     14  H   UNL     1      43.920 -20.192  40.492  0.00  0.00     0.159 HD
ATOM     15  H   UNL     1      42.867 -20.679  39.209  0.00  0.00     0.159 HD
ATOM     16  O2* UNL     1      45.278 -13.387  41.785  0.00  0.00    -0.388 OA
ATOM     17  H2* UNL     1      45.244 -13.075  42.706  0.00  0.00     0.210 HD
ATOM     18  O3* UNL     1      43.395 -11.700  42.781  0.00  0.00    -0.390 OA
ATOM     19  H3* UNL     1      42.816 -10.925  42.882  0.00  0.00     0.210 HD
ATOM     20  C5* UNL     1      41.086 -12.863  40.104  0.00  0.00     0.198 C 
ATOM     21  O5* UNL     1      39.775 -13.391  40.205  0.00  0.00    -0.398 OA
ATOM     22  H5* UNL     1      39.845 -14.277  40.597  0.00  0.00     0.209 HD
ENDROOT
TORSDOF 6
ENDMDL
MODEL 3
REMARK VINA RESULT:      -5.9      5.221      6.915
REMARK  0 active torsions:
REMARK  status: ('A' for Active; 'I' for Inactive)
REMARK       I    between atoms: C3*_2  and  O3*_18 
REMARK       I    between atoms: C2*_3  and  O2*_16 
REMARK       I    between atoms: C4*_4  and  C5*_20 
REMARK       I    between atoms: C1*_5  and  N_6 
REMARK       I    between atoms: C_10  and  C_13 
REMARK       I    between atoms: N_12  and  C_13 
REMARK       I    between atoms: C5*_20  and  O5*_21 
ROOT
ATOM      1  O4* UNL     1      40.217 -21.198  38.013  0.00  0.00    -0.352 OA
ATOM      2  C3* UNL     1      40.063 -20.895  40.369  0.00  0.00     0.182 C 
ATOM      3  C2* UNL     1      40.903 -19.779  39.779  0.00  0.00     0.200 C 
ATOM      4  C4* UNL     1      39.345 -21.444  39.141  0.00  0.00     0.179 C 
ATOM      5  C1* UNL     1      41.323 -20.386  38.450  0.00  0.00     0.279 C 
ATOM      6  N   UNL     1      41.647 -19.400  37.421  0.00  0.00    -0.229 N 
ATOM      7  N   UNL     1      40.689 -18.877  36.641  0.00  0.00    -0.143 NA
ATOM      8  N   UNL     1      42.750 -18.029  36.126  0.00  0.00    -0.216 NA
ATOM      9  C   UNL     1      42.869 -18.891  37.109  0.00  0.00     0.234 A 
ATOM     10  C   UNL     1      41.408 -18.055  35.875  0.00  0.00     0.238 A 
ATOM     11  O   UNL     1      39.569 -17.247  34.626  0.00  0.00    -0.264 OA
ATOM     12  N   UNL     1      41.627 -16.420  34.101  0.00  0.00    -0.363 N 
ATOM     13  C   UNL     1      40.798 -17.254  34.857  0.00  0.00     0.288 C 
ATOM     14  H   UNL     1      42.630 -16.378  34.252  0.00  0.00     0.159 HD
ATOM     15  H   UNL     1      41.246 -15.827  33.372  0.00  0.00     0.159 HD
ATOM     16  O2* UNL     1      42.017 -19.442  40.581  0.00  0.00    -0.388 OA
ATOM     17  H2* UNL     1      42.521 -20.256  40.752  0.00  0.00     0.210 HD
ATOM     18  O3* UNL     1      40.920 -21.908  40.894  0.00  0.00    -0.390 OA
ATOM     19  H3* UNL     1      40.352 -22.628  41.221  0.00  0.00     0.210 HD
ATOM     20  C5* UNL     1      38.012 -20.759  38.875  0.00  0.00     0.198 C 
ATOM     21  O5* UNL     1      37.432 -21.329  37.716  0.00  0.00    -0.398 OA
ATOM     22  H5* UNL     1      38.056 -21.198  36.981  0.00  0.00     0.209 HD
ENDROOT
TORSDOF 6
ENDMDL
MODEL 4
REMARK VINA RESULT:      -5.9      2.472      5.288
REMARK  0 active torsions:
REMARK  status: ('A' for Active; 'I' for Inactive)
REMARK       I    between atoms: C3*_2  and  O3*_18 
REMARK       I    between atoms: C2*_3  and  O2*_16 
REMARK       I    between atoms: C4*_4  and  C5*_20 
REMARK       I    between atoms: C1*_5  and  N_6 
REMARK       I    between atoms: C_10  and  C_13 
REMARK       I    between atoms: N_12  and  C_13 
REMARK       I    between atoms: C5*_20  and  O5*_21 
ROOT
ATOM      1  O4* UNL     1      44.477 -14.053  41.214  0.00  0.00    -0.352 OA
ATOM      2  C3* UNL     1      43.160 -12.726  42.689  0.00  0.00     0.182 C 
ATOM      3  C2* UNL     1      42.269 -13.752  42.017  0.00  0.00     0.200 C 
ATOM      4  C4* UNL     1      44.553 -13.296  42.445  0.00  0.00     0.179 C 
ATOM      5  C1* UNL     1      43.100 -14.121  40.798  0.00  0.00     0.279 C 
ATOM      6  N   UNL     1      42.813 -15.452  40.263  0.00  0.00    -0.229 N 
ATOM      7  N   UNL     1      43.428 -16.538  40.752  0.00  0.00    -0.143 NA
ATOM      8  N   UNL     1      41.971 -17.079  39.074  0.00  0.00    -0.216 NA
ATOM      9  C   UNL     1      41.949 -15.781  39.266  0.00  0.00     0.234 A 
ATOM     10  C   UNL     1      42.885 -17.496  39.999  0.00  0.00     0.238 A 
ATOM     11  O   UNL     1      44.063 -19.277  41.016  0.00  0.00    -0.264 OA
ATOM     12  N   UNL     1      42.626 -19.810  39.329  0.00  0.00    -0.363 N 
ATOM     13  C   UNL     1      43.245 -18.873  40.161  0.00  0.00     0.288 C 
ATOM     14  H   UNL     1      41.947 -19.539  38.624  0.00  0.00     0.159 HD
ATOM     15  H   UNL     1      42.840 -20.798  39.407  0.00  0.00     0.159 HD
ATOM     16  O2* UNL     1      41.005 -13.235  41.657  0.00  0.00    -0.388 OA
ATOM     17  H2* UNL     1      41.148 -12.437  41.120  0.00  0.00     0.210 HD
ATOM     18  O3* UNL     1      43.048 -11.478  42.006  0.00  0.00    -0.390 OA
ATOM     19  H3* UNL     1      43.665 -10.858  42.431  0.00  0.00     0.210 HD
ATOM     20  C5* UNL     1      45.015 -14.231  43.555  0.00  0.00     0.198 C 
ATOM     21  O5* UNL     1      46.307 -14.714  43.232  0.00  0.00    -0.398 OA
ATOM     22  H5* UNL     1      46.244 -15.174  42.378  0.00  0.00     0.209 HD
ENDROOT
TORSDOF 6
ENDMDL
MODEL 5
REMARK VINA RESULT:      -5.8      3.969      5.692
REMARK  0 active torsions:
REMARK  status: ('A' for Active; 'I' for Inactive)
REMARK       I    between atoms: C3*_2  and  O3*_18 
REMARK       I    between atoms: C2*_3  and  O2*_16 
REMARK       I    between atoms: C4*_4  and  C5*_20 
REMARK       I    between atoms: C1*_5  and  N_6 
REMARK       I    between atoms: C_10  and  C_13 
REMARK       I    between atoms: N_12  and  C_13 
REMARK       I    between atoms: C5*_20  and  O5*_21 
ROOT
ATOM      1  O4* UNL     1      42.428 -19.294  40.755  0.00  0.00    -0.352 OA
ATOM      2  C3* UNL     1      42.524 -17.502  39.191  0.00  0.00     0.182 C 
ATOM      3  C2* UNL     1      41.083 -17.948  39.347  0.00  0.00     0.200 C 
ATOM      4  C4* UNL     1      43.186 -18.107  40.424  0.00  0.00     0.179 C 
ATOM      5  C1* UNL     1      41.259 -19.346  39.917  0.00  0.00     0.279 C 
ATOM      6  N   UNL     1      40.116 -19.820  40.695  0.00  0.00    -0.229 N 
ATOM      7  N   UNL     1      40.002 -19.529  42.000  0.00  0.00    -0.143 NA
ATOM      8  N   UNL     1      38.243 -20.792  41.262  0.00  0.00    -0.216 NA
ATOM      9  C   UNL     1      39.067 -20.571  40.264  0.00  0.00     0.234 A 
ATOM     10  C   UNL     1      38.853 -20.140  42.295  0.00  0.00     0.238 A 
ATOM     11  O   UNL     1      38.837 -19.499  44.571  0.00  0.00    -0.264 OA
ATOM     12  N   UNL     1      37.096 -20.775  43.838  0.00  0.00    -0.363 N 
ATOM     13  C   UNL     1      38.305 -20.108  43.617  0.00  0.00     0.288 C 
ATOM     14  H   UNL     1      36.616 -21.276  43.098  0.00  0.00     0.159 HD
ATOM     15  H   UNL     1      36.661 -20.776  44.754  0.00  0.00     0.159 HD
ATOM     16  O2* UNL     1      40.372 -17.961  38.126  0.00  0.00    -0.388 OA
ATOM     17  H2* UNL     1      40.876 -18.499  37.491  0.00  0.00     0.210 HD
ATOM     18  O3* UNL     1      43.084 -18.106  38.025  0.00  0.00    -0.390 OA
ATOM     19  H3* UNL     1      44.018 -17.838  37.980  0.00  0.00     0.210 HD
ATOM     20  C5* UNL     1      43.165 -17.173  41.627  0.00  0.00     0.198 C 
ATOM     21  O5* UNL     1      43.790 -17.826  42.718  0.00  0.00    -0.398 OA
ATOM     22  H5* UNL     1      43.297 -18.646  42.891  0.00  0.00     0.209 HD
ENDROOT
TORSDOF 6
ENDMDL
MODEL 6
REMARK VINA RESULT:      -5.7      4.993      7.825
REMARK  0 active torsions:
REMARK  status: ('A' for Active; 'I' for Inactive)
REMARK       I    between atoms: C3*_2  and  O3*_18 
REMARK       I    between atoms: C2*_3  and  O2*_16 
REMARK       I    between atoms: C4*_4  and  C5*_20 
REMARK       I    between atoms: C1*_5  and  N_6 
REMARK       I    between atoms: C_10  and  C_13 
REMARK       I    between atoms: N_12  and  C_13 
REMARK       I    between atoms: C5*_20  and  O5*_21 
ROOT
ATOM      1  O4* UNL     1      40.987 -18.358  38.309  0.00  0.00    -0.352 OA
ATOM      2  C3* UNL     1      42.720 -19.339  39.613  0.00  0.00     0.182 C 
ATOM      3  C2* UNL     1      41.541 -20.291  39.559  0.00  0.00     0.200 C 
ATOM      4  C4* UNL     1      42.426 -18.392  38.455  0.00  0.00     0.179 C 
ATOM      5  C1* UNL     1      40.409 -19.349  39.180  0.00  0.00     0.279 C 
ATOM      6  N   UNL     1      39.290 -20.004  38.505  0.00  0.00    -0.229 N 
ATOM      7  N   UNL     1      39.300 -20.192  37.177  0.00  0.00    -0.143 NA
ATOM      8  N   UNL     1      37.386 -21.008  38.128  0.00  0.00    -0.216 NA
ATOM      9  C   UNL     1      38.150 -20.492  39.064  0.00  0.00     0.234 A 
ATOM     10  C   UNL     1      38.127 -20.802  36.999  0.00  0.00     0.238 A 
ATOM     11  O   UNL     1      38.354 -21.049  34.659  0.00  0.00    -0.264 OA
ATOM     12  N   UNL     1      36.439 -21.843  35.607  0.00  0.00    -0.363 N 
ATOM     13  C   UNL     1      37.682 -21.210  35.701  0.00  0.00     0.288 C 
ATOM     14  H   UNL     1      35.856 -22.008  36.421  0.00  0.00     0.159 HD
ATOM     15  H   UNL     1      36.081 -22.158  34.712  0.00  0.00     0.159 HD
ATOM     16  O2* UNL     1      41.297 -20.940  40.790  0.00  0.00    -0.388 OA
ATOM     17  H2* UNL     1      41.211 -20.258  41.478  0.00  0.00     0.210 HD
ATOM     18  O3* UNL     1      42.680 -18.601  40.834  0.00  0.00    -0.390 OA
ATOM     19  H3* UNL     1      43.420 -17.970  40.815  0.00  0.00     0.210 HD
ATOM     20  C5* UNL     1      43.030 -18.858  37.137  0.00  0.00     0.198 C 
ATOM     21  O5* UNL     1      42.694 -17.923  36.128  0.00  0.00    -0.398 OA
ATOM     22  H5* UNL     1      41.724 -17.877  36.082  0.00  0.00     0.209 HD
ENDROOT
TORSDOF 6
ENDMDL
MODEL 7
REMARK VINA RESULT:      -5.5      2.041      3.082
REMARK  0 active torsions:
REMARK  status: ('A' for Active; 'I' for Inactive)
REMARK       I    between atoms: C3*_2  and  O3*_18 
REMARK       I    between atoms: C2*_3  and  O2*_16 
REMARK       I    between atoms: C4*_4  and  C5*_20 
REMARK       I    between atoms: C1*_5  and  N_6 
REMARK       I    between atoms: C_10  and  C_13 
REMARK       I    between atoms: N_12  and  C_13 
REMARK       I    between atoms: C5*_20  and  O5*_21 
ROOT
ATOM      1  O4* UNL     1      42.677 -17.112  38.760  0.00  0.00    -0.352 OA
ATOM      2  C3* UNL     1      40.678 -18.353  39.124  0.00  0.00     0.182 C 
ATOM      3  C2* UNL     1      41.214 -17.874  40.459  0.00  0.00     0.200 C 
ATOM      4  C4* UNL     1      41.418 -17.456  38.137  0.00  0.00     0.179 C 
ATOM      5  C1* UNL     1      42.669 -17.593  40.117  0.00  0.00     0.279 C 
ATOM      6  N   UNL     1      43.307 -16.611  40.992  0.00  0.00    -0.229 N 
ATOM      7  N   UNL     1      43.211 -15.297  40.738  0.00  0.00    -0.143 NA
ATOM      8  N   UNL     1      44.443 -15.703  42.623  0.00  0.00    -0.216 NA
ATOM      9  C   UNL     1      44.040 -16.844  42.113  0.00  0.00     0.234 A 
ATOM     10  C   UNL     1      43.915 -14.792  41.753  0.00  0.00     0.238 A 
ATOM     11  O   UNL     1      43.607 -12.530  41.136  0.00  0.00    -0.264 OA
ATOM     12  N   UNL     1      44.851 -12.939  43.001  0.00  0.00    -0.363 N 
ATOM     13  C   UNL     1      44.099 -13.381  41.909  0.00  0.00     0.288 C 
ATOM     14  H   UNL     1      45.266 -13.584  43.665  0.00  0.00     0.159 HD
ATOM     15  H   UNL     1      45.006 -11.949  43.162  0.00  0.00     0.159 HD
ATOM     16  O2* UNL     1      41.089 -18.839  41.483  0.00  0.00    -0.388 OA
ATOM     17  H2* UNL     1      41.504 -19.662  41.173  0.00  0.00     0.210 HD
ATOM     18  O3* UNL     1      41.080 -19.705  38.907  0.00  0.00    -0.390 OA
ATOM     19  H3* UNL     1      40.761 -19.965  38.026  0.00  0.00     0.210 HD
ATOM     20  C5* UNL     1      40.668 -16.167  37.827  0.00  0.00     0.198 C 
ATOM     21  O5* UNL     1      41.437 -15.403  36.916  0.00  0.00    -0.398 OA
ATOM     22  H5* UNL     1      42.297 -15.227  37.333  0.00  0.00     0.209 HD
ENDROOT
TORSDOF 6
ENDMDL
MODEL 8
REMARK VINA RESULT:      -5.5     17.069     18.456
REMARK  0 active torsions:
REMARK  status: ('A' for Active; 'I' for Inactive)
REMARK       I    between atoms: C3*_2  and  O3*_18 
REMARK       I    between atoms: C2*_3  and  O2*_16 
REMARK       I    between atoms: C4*_4  and  C5*_20 
REMARK       I    between atoms: C1*_5  and  N_6 
REMARK       I    between atoms: C_10  and  C_13 
REMARK       I    between atoms: N_12  and  C_13 
REMARK       I    between atoms: C5*_20  and  O5*_21 
ROOT
ATOM      1  O4* UNL     1      50.094 -31.752  41.150  0.00  0.00    -0.352 OA
ATOM      2  C3* UNL     1      48.669 -32.807  39.562  0.00  0.00     0.182 C 
ATOM      3  C2* UNL     1      50.112 -33.109  39.210  0.00  0.00     0.200 C 
ATOM      4  C4* UNL     1      48.779 -32.337  41.009  0.00  0.00     0.179 C 
ATOM      5  C1* UNL     1      50.842 -31.995  39.944  0.00  0.00     0.279 C 
ATOM      6  N   UNL     1      52.229 -32.312  40.280  0.00  0.00    -0.229 N 
ATOM      7  N   UNL     1      52.531 -32.970  41.409  0.00  0.00    -0.143 NA
ATOM      8  N   UNL     1      54.406 -32.470  40.197  0.00  0.00    -0.216 NA
ATOM      9  C   UNL     1      53.348 -32.019  39.565  0.00  0.00     0.234 A 
ATOM     10  C   UNL     1      53.860 -33.040  41.312  0.00  0.00     0.238 A 
ATOM     11  O   UNL     1      54.172 -34.220  43.337  0.00  0.00    -0.264 OA
ATOM     12  N   UNL     1      56.039 -33.703  42.138  0.00  0.00    -0.363 N 
ATOM     13  C   UNL     1      54.654 -33.675  42.320  0.00  0.00     0.288 C 
ATOM     14  H   UNL     1      56.484 -33.284  41.326  0.00  0.00     0.159 HD
ATOM     15  H   UNL     1      56.646 -34.146  42.818  0.00  0.00     0.159 HD
ATOM     16  O2* UNL     1      50.361 -33.077  37.820  0.00  0.00    -0.388 OA
ATOM     17  H2* UNL     1      50.052 -32.220  37.479  0.00  0.00     0.210 HD
ATOM     18  O3* UNL     1      48.201 -31.723  38.760  0.00  0.00    -0.390 OA
ATOM     19  H3* UNL     1      47.291 -31.525  39.043  0.00  0.00     0.210 HD
ATOM     20  C5* UNL     1      48.649 -33.473  42.014  0.00  0.00     0.198 C 
ATOM     21  O5* UNL     1      48.774 -32.939  43.320  0.00  0.00    -0.398 OA
ATOM     22  H5* UNL     1      49.643 -32.506  43.378  0.00  0.00     0.209 HD
ENDROOT
TORSDOF 6
ENDMDL
MODEL 9
REMARK VINA RESULT:      -5.5      3.535      4.915
REMARK  0 active torsions:
REMARK  status: ('A' for Active; 'I' for Inactive)
REMARK       I    between atoms: C3*_2  and  O3*_18 
REMARK       I    between atoms: C2*_3  and  O2*_16 
REMARK       I    between atoms: C4*_4  and  C5*_20 
REMARK       I    between atoms: C1*_5  and  N_6 
REMARK       I    between atoms: C_10  and  C_13 
REMARK       I    between atoms: N_12  and  C_13 
REMARK       I    between atoms: C5*_20  and  O5*_21 
ROOT
ATOM      1  O4* UNL     1      40.545 -17.131  41.612  0.00  0.00    -0.352 OA
ATOM      2  C3* UNL     1      38.600 -18.391  42.157  0.00  0.00     0.182 C 
ATOM      3  C2* UNL     1      39.509 -19.235  41.286  0.00  0.00     0.200 C 
ATOM      4  C4* UNL     1      39.542 -17.293  42.642  0.00  0.00     0.179 C 
ATOM      5  C1* UNL     1      40.373 -18.170  40.630  0.00  0.00     0.279 C 
ATOM      6  N   UNL     1      41.682 -18.653  40.190  0.00  0.00    -0.229 N 
ATOM      7  N   UNL     1      42.724 -18.682  41.034  0.00  0.00    -0.143 NA
ATOM      8  N   UNL     1      43.298 -19.454  38.958  0.00  0.00    -0.216 NA
ATOM      9  C   UNL     1      42.030 -19.113  38.959  0.00  0.00     0.234 A 
ATOM     10  C   UNL     1      43.677 -19.174  40.240  0.00  0.00     0.238 A 
ATOM     11  O   UNL     1      45.372 -19.161  41.888  0.00  0.00    -0.264 OA
ATOM     12  N   UNL     1      45.946 -19.910  39.814  0.00  0.00    -0.363 N 
ATOM     13  C   UNL     1      45.011 -19.391  40.714  0.00  0.00     0.288 C 
ATOM     14  H   UNL     1      45.705 -20.124  38.851  0.00  0.00     0.159 HD
ATOM     15  H   UNL     1      46.902 -20.089  40.100  0.00  0.00     0.159 HD
ATOM     16  O2* UNL     1      38.804 -20.004  40.333  0.00  0.00    -0.388 OA
ATOM     17  H2* UNL     1      38.232 -19.403  39.825  0.00  0.00     0.210 HD
ATOM     18  O3* UNL     1      37.582 -17.800  41.350  0.00  0.00    -0.390 OA
ATOM     19  H3* UNL     1      37.046 -17.231  41.929  0.00  0.00     0.210 HD
ATOM     20  C5* UNL     1      40.245 -17.646  43.945  0.00  0.00     0.198 C 
ATOM     21  O5* UNL     1      41.100 -16.575  44.303  0.00  0.00    -0.398 OA
ATOM     22  H5* UNL     1      41.733 -16.449  43.576  0.00  0.00     0.209 HD
ENDROOT
TORSDOF 6
ENDMDL
MODEL 10
REMARK VINA RESULT:      -5.4     13.856     15.265
REMARK  0 active torsions:
REMARK  status: ('A' for Active; 'I' for Inactive)
REMARK       I    between atoms: C3*_2  and  O3*_18 
REMARK       I    between atoms: C2*_3  and  O2*_16 
REMARK       I    between atoms: C4*_4  and  C5*_20 
REMARK       I    between atoms: C1*_5  and  N_6 
REMARK       I    between atoms: C_10  and  C_13 
REMARK       I    between atoms: N_12  and  C_13 
REMARK       I    between atoms: C5*_20  and  O5*_21 
ROOT
ATOM      1  O4* UNL     1      56.233 -25.086  39.842  0.00  0.00    -0.352 OA
ATOM      2  C3* UNL     1      55.400 -24.082  37.851  0.00  0.00     0.182 C 
ATOM      3  C2* UNL     1      55.581 -23.011  38.908  0.00  0.00     0.200 C 
ATOM      4  C4* UNL     1      56.242 -25.228  38.402  0.00  0.00     0.179 C 
ATOM      5  C1* UNL     1      55.594 -23.841  40.181  0.00  0.00     0.279 C 
ATOM      6  N   UNL     1      56.302 -23.212  41.295  0.00  0.00    -0.229 N 
ATOM      7  N   UNL     1      57.628 -23.354  41.437  0.00  0.00    -0.143 NA
ATOM      8  N   UNL     1      56.735 -22.063  43.102  0.00  0.00    -0.216 NA
ATOM      9  C   UNL     1      55.778 -22.444  42.288  0.00  0.00     0.234 A 
ATOM     10  C   UNL     1      57.841 -22.641  42.545  0.00  0.00     0.238 A 
ATOM     11  O   UNL     1      60.177 -23.000  42.598  0.00  0.00    -0.264 OA
ATOM     12  N   UNL     1      59.282 -21.732  44.267  0.00  0.00    -0.363 N 
ATOM     13  C   UNL     1      59.150 -22.497  43.104  0.00  0.00     0.288 C 
ATOM     14  H   UNL     1      58.484 -21.292  44.715  0.00  0.00     0.159 HD
ATOM     15  H   UNL     1      60.188 -21.592  44.700  0.00  0.00     0.159 HD
ATOM     16  O2* UNL     1      54.539 -22.056  38.912  0.00  0.00    -0.388 OA
ATOM     17  H2* UNL     1      53.695 -22.532  38.985  0.00  0.00     0.210 HD
ATOM     18  O3* UNL     1      54.033 -24.491  37.817  0.00  0.00    -0.390 OA
ATOM     19  H3* UNL     1      53.961 -25.209  37.164  0.00  0.00     0.210 HD
ATOM     20  C5* UNL     1      57.688 -25.186  37.925  0.00  0.00     0.198 C 
ATOM     21  O5* UNL     1      58.386 -26.277  38.497  0.00  0.00    -0.398 OA
ATOM     22  H5* UNL     1      58.324 -26.191  39.463  0.00  0.00     0.209 HD
ENDROOT
TORSDOF 6
ENDMDL
