REMARK  9 active torsions:
REMARK  status: ('A' for Active; 'I' for Inactive)
REMARK    1  A    between atoms: O_3  and  C_17 
REMARK    2  A    between atoms: O_3  and  C_33 
REMARK    3  A    between atoms: O_4  and  C_18 
REMARK    4  A    between atoms: O_4  and  C_34 
REMARK    5  A    between atoms: O_5  and  C_30 
REMARK    6  A    between atoms: C_13  and  C_24 
REMARK    7  A    between atoms: C_24  and  C_30 
REMARK    8  A    between atoms: C_29  and  C_32 
REMARK    9  A    between atoms: C_33  and  C_37 
ROOT
HETATM    1  O   UNL     1      -1.918   3.421   1.536  1.00  0.00    -0.382 OA
HETATM    2  O   UNL     1       0.536   2.031   1.742  1.00  0.00    -0.372 OA
HETATM    3  C   UNL     1      -1.467   1.063  -1.353  1.00  0.00    -0.005 C 
HETATM    4  C   UNL     1      -1.896   1.711  -0.033  1.00  0.00     0.041 C 
HETATM    5  C   UNL     1       0.943   2.051  -0.668  1.00  0.00     0.016 C 
HETATM    6  C   UNL     1       0.096   0.809  -1.194  1.00  0.00     0.021 C 
HETATM    7  C   UNL     1      -3.366   1.991   0.246  1.00  0.00     0.011 C 
HETATM    8  C   UNL     1      -1.221   3.001   0.346  1.00  0.00     0.157 C 
HETATM    9  C   UNL     1       0.274   2.797   0.539  1.00  0.00     0.164 C 
HETATM   10  C   UNL     1      -2.300  -0.271  -1.458  1.00  0.00     0.143 C 
HETATM   11  C   UNL     1      -4.127   0.652   0.179  1.00  0.00     0.145 C 
HETATM   12  C   UNL     1       2.124   1.559   0.113  1.00  0.00    -0.037 C 
HETATM   13  C   UNL     1      -3.165   2.666   1.620  1.00  0.00     0.180 C 
HETATM   14  C   UNL     1      -3.814  -0.095  -1.146  1.00  0.00     0.067 C 
HETATM   15  C   UNL     1       1.661   1.200   1.484  1.00  0.00     0.153 C 
HETATM   16  C   UNL     1      -1.774   1.917  -2.601  1.00  0.00     0.019 C 
HETATM   17  C   UNL     1       1.295   3.075  -1.756  1.00  0.00     0.023 C 
HETATM   18  C   UNL     1      -4.072   3.020  -0.665  1.00  0.00     0.020 C 
HETATM   19  C   UNL     1       3.459   1.523   0.004  1.00  0.00    -0.069 C 
HETATM   20  C   UNL     1       2.898   1.474   2.324  1.00  0.00     0.050 C 
HETATM   21  C   UNL     1       4.081   1.226   1.358  1.00  0.00     0.052 C 
HETATM   22  C   UNL     1       4.329   1.839  -1.160  1.00  0.00     0.044 C 
ENDROOT
BRANCH  11  23
HETATM   23  O   UNL     1      -3.772  -0.213   1.256  1.00  0.00    -0.315 OA
BRANCH  23  24
HETATM   24  C   UNL     1      -4.740  -1.089   1.655  1.00  0.00     0.255 C 
HETATM   25  O   UNL     1      -5.862  -1.194   1.178  1.00  0.00    -0.266 OA
HETATM   26  C   UNL     1      -4.228  -1.928   2.787  1.00  0.00     0.126 C 
ENDBRANCH  23  24
ENDBRANCH  11  23
BRANCH   6  27
HETATM   27  C   UNL     1       0.738   0.124  -2.412  1.00  0.00     0.117 C 
BRANCH  27  28
HETATM   28  C   UNL     1       1.955  -0.666  -2.020  1.00  0.00     0.258 C 
HETATM   29  O   UNL     1       2.138  -1.214  -0.941  1.00  0.00    -0.265 OA
BRANCH  28  30
HETATM   30  O   UNL     1       2.822  -0.667  -3.075  1.00  0.00    -0.326 OA
HETATM   31  C   UNL     1       4.045  -1.382  -2.868  1.00  0.00     0.213 C 
ENDBRANCH  28  30
ENDBRANCH  27  28
ENDBRANCH   6  27
BRANCH  10  32
HETATM   32  O   UNL     1      -1.785  -1.292  -0.601  1.00  0.00    -0.311 OA
BRANCH  32  33
HETATM   33  C   UNL     1      -1.935  -2.571  -1.047  1.00  0.00     0.289 C 
HETATM   34  O   UNL     1      -2.464  -2.905  -2.098  1.00  0.00    -0.260 OA
BRANCH  33  35
HETATM   35  C   UNL     1      -1.358  -3.519  -0.047  1.00  0.00     0.009 C 
HETATM   36  C   UNL     1      -0.711  -2.952   1.182  1.00  0.00     0.054 C 
HETATM   37  C   UNL     1      -1.443  -4.825  -0.359  1.00  0.00    -0.018 C 
HETATM   38  C   UNL     1      -0.967  -5.985   0.458  1.00  0.00     0.036 C 
ENDBRANCH  33  35
ENDBRANCH  32  33
ENDBRANCH  10  32
BRANCH  21  39
HETATM   39  C   UNL     1       4.595  -0.160   1.435  1.00  0.00    -0.026 A 
HETATM   40  C   UNL     1       5.914  -0.596   1.163  1.00  0.00     0.034 A 
HETATM   41  C   UNL     1       5.915  -1.956   1.366  1.00  0.00     0.142 A 
HETATM   42  O   UNL     1       4.682  -2.384   1.745  1.00  0.00    -0.334 OA
HETATM   43  C   UNL     1       3.885  -1.284   1.784  1.00  0.00     0.149 A 
ENDBRANCH  21  39
TORSDOF 9
