MODEL 1
REMARK VINA RESULT:      -8.3      0.000      0.000
REMARK  0 active torsions:
REMARK  status: ('A' for Active; 'I' for Inactive)
REMARK       I    between atoms: O_1  and  P_2 
REMARK       I    between atoms: O_1  and  C_21 
REMARK       I    between atoms: P_2  and  N_4 
REMARK       I    between atoms: P_2  and  O_14 
REMARK       I    between atoms: N_4  and  C_6 
REMARK       I    between atoms: C_6  and  C_9 
REMARK       I    between atoms: C_9  and  O_10 
REMARK       I    between atoms: O_10  and  C_11 
REMARK       I    between atoms: O_14  and  C_15 
REMARK       I    between atoms: C_21  and  C_27 
REMARK       I    between atoms: C_25  and  O_38 
REMARK       I    between atoms: C_26  and  N_31 
ROOT
ATOM      1  O   UNL     1      42.798 -16.386  39.838  0.00  0.00    -0.295 OA
ATOM      2  P   UNL     1      41.493 -17.246  39.379  0.00  0.00     0.436 P 
ATOM      3  O   UNL     1      41.349 -17.217  37.878  0.00  0.00    -0.234 OA
ATOM      4  N   UNL     1      41.610 -18.739  40.094  0.00  0.00    -0.314 N 
ATOM      5  H   UNL     1      42.350 -19.341  39.735  0.00  0.00     0.166 HD
ATOM      6  C   UNL     1      40.392 -19.504  40.317  0.00  0.00     0.183 C 
ATOM      7  C   UNL     1      40.707 -20.993  40.288  0.00  0.00     0.043 C 
ATOM      8  O   UNL     1      40.478 -18.758  42.638  0.00  0.00    -0.263 OA
ATOM      9  C   UNL     1      39.822 -19.102  41.663  0.00  0.00     0.281 C 
ATOM     10  O   UNL     1      38.457 -19.182  41.615  0.00  0.00    -0.315 OA
ATOM     11  C   UNL     1      37.774 -18.825  42.820  0.00  0.00     0.123 C 
ATOM     12  C   UNL     1      37.626 -20.059  43.697  0.00  0.00     0.040 C 
ATOM     13  C   UNL     1      36.424 -18.216  42.470  0.00  0.00     0.040 C 
ATOM     14  O   UNL     1      40.307 -16.431  40.125  0.00  0.00    -0.256 OA
ATOM     15  C   UNL     1      39.903 -15.158  39.821  0.00  0.00     0.080 A 
ATOM     16  C   UNL     1      40.530 -14.455  38.793  0.00  0.00     0.037 A 
ATOM     17  C   UNL     1      38.866 -14.566  40.540  0.00  0.00     0.037 A 
ATOM     18  C   UNL     1      40.119 -13.158  38.484  0.00  0.00     0.003 A 
ATOM     19  C   UNL     1      38.455 -13.269  40.233  0.00  0.00     0.003 A 
ATOM     20  C   UNL     1      39.082 -12.565  39.204  0.00  0.00     0.000 A 
ATOM     21  C   UNL     1      43.276 -16.470  41.171  0.00  0.00     0.214 C 
ATOM     22  F   UNL     1      45.489 -13.058  42.542  0.00  0.00    -0.236 F 
ATOM     23  O   UNL     1      42.949 -14.093  41.476  0.00  0.00    -0.353 OA
ATOM     24  C   UNL     1      44.463 -13.631  43.244  0.00  0.00     0.172 C 
ATOM     25  C   UNL     1      44.466 -15.121  42.962  0.00  0.00     0.193 C 
ATOM     26  C   UNL     1      43.164 -13.189  42.577  0.00  0.00     0.274 C 
ATOM     27  C   UNL     1      43.925 -15.148  41.543  0.00  0.00     0.180 C 
ATOM     28  C   UNL     1      44.648 -13.249  44.699  0.00  0.00     0.059 C 
ATOM     29  O   UNL     1      42.155 -11.000  44.050  0.00  0.00    -0.246 OA
ATOM     30  O   UNL     1      38.741 -13.536  45.827  0.00  0.00    -0.268 OA
ATOM     31  N   UNL     1      42.012 -13.249  43.432  0.00  0.00    -0.279 N 
ATOM     32  N   UNL     1      40.455 -12.265  44.934  0.00  0.00    -0.275 N 
ATOM     33  C   UNL     1      41.589 -12.093  44.128  0.00  0.00     0.331 A 
ATOM     34  C   UNL     1      41.316 -14.443  43.574  0.00  0.00     0.104 A 
ATOM     35  C   UNL     1      40.237 -14.591  44.346  0.00  0.00     0.092 A 
ATOM     36  C   UNL     1      39.730 -13.433  45.108  0.00  0.00     0.250 A 
ATOM     37  H   UNL     1      40.134 -11.447  45.444  0.00  0.00     0.173 HD
ATOM     38  O   UNL     1      45.753 -15.695  43.040  0.00  0.00    -0.389 OA
ATOM     39  H   UNL     1      45.676 -16.629  42.782  0.00  0.00     0.210 HD
ENDROOT
TORSDOF 12
ENDMDL
MODEL 2
REMARK VINA RESULT:      -8.3      3.534      7.685
REMARK  0 active torsions:
REMARK  status: ('A' for Active; 'I' for Inactive)
REMARK       I    between atoms: O_1  and  P_2 
REMARK       I    between atoms: O_1  and  C_21 
REMARK       I    between atoms: P_2  and  N_4 
REMARK       I    between atoms: P_2  and  O_14 
REMARK       I    between atoms: N_4  and  C_6 
REMARK       I    between atoms: C_6  and  C_9 
REMARK       I    between atoms: C_9  and  O_10 
REMARK       I    between atoms: O_10  and  C_11 
REMARK       I    between atoms: O_14  and  C_15 
REMARK       I    between atoms: C_21  and  C_27 
REMARK       I    between atoms: C_25  and  O_38 
REMARK       I    between atoms: C_26  and  N_31 
ROOT
ATOM      1  O   UNL     1      42.266 -18.582  40.606  0.00  0.00    -0.295 OA
ATOM      2  P   UNL     1      42.137 -17.316  41.622  0.00  0.00     0.436 P 
ATOM      3  O   UNL     1      42.582 -17.710  43.008  0.00  0.00    -0.234 OA
ATOM      4  N   UNL     1      42.920 -16.035  40.916  0.00  0.00    -0.314 N 
ATOM      5  H   UNL     1      43.935 -16.115  40.867  0.00  0.00     0.166 HD
ATOM      6  C   UNL     1      42.531 -14.685  41.295  0.00  0.00     0.183 C 
ATOM      7  C   UNL     1      43.721 -13.746  41.146  0.00  0.00     0.043 C 
ATOM      8  O   UNL     1      41.237 -14.595  39.229  0.00  0.00    -0.263 OA
ATOM      9  C   UNL     1      41.391 -14.252  40.394  0.00  0.00     0.281 C 
ATOM     10  O   UNL     1      40.560 -13.418  41.091  0.00  0.00    -0.315 OA
ATOM     11  C   UNL     1      39.427 -12.928  40.367  0.00  0.00     0.123 C 
ATOM     12  C   UNL     1      39.807 -11.642  39.651  0.00  0.00     0.040 C 
ATOM     13  C   UNL     1      38.269 -12.718  41.332  0.00  0.00     0.040 C 
ATOM     14  O   UNL     1      40.544 -17.023  41.550  0.00  0.00    -0.256 OA
ATOM     15  C   UNL     1      39.560 -17.847  42.029  0.00  0.00     0.080 A 
ATOM     16  C   UNL     1      39.899 -19.054  42.640  0.00  0.00     0.037 A 
ATOM     17  C   UNL     1      38.221 -17.479  41.906  0.00  0.00     0.037 A 
ATOM     18  C   UNL     1      38.898 -19.894  43.128  0.00  0.00     0.003 A 
ATOM     19  C   UNL     1      37.219 -18.319  42.392  0.00  0.00     0.003 A 
ATOM     20  C   UNL     1      37.557 -19.526  43.004  0.00  0.00     0.000 A 
ATOM     21  C   UNL     1      42.139 -18.391  39.206  0.00  0.00     0.214 C 
ATOM     22  F   UNL     1      40.865 -21.839  36.991  0.00  0.00    -0.236 F 
ATOM     23  O   UNL     1      40.260 -19.911  39.131  0.00  0.00    -0.353 OA
ATOM     24  C   UNL     1      40.299 -20.599  36.860  0.00  0.00     0.172 C 
ATOM     25  C   UNL     1      41.378 -19.557  37.083  0.00  0.00     0.193 C 
ATOM     26  C   UNL     1      39.402 -20.387  38.076  0.00  0.00     0.274 C 
ATOM     27  C   UNL     1      41.567 -19.655  38.588  0.00  0.00     0.180 C 
ATOM     28  C   UNL     1      39.630 -20.555  35.500  0.00  0.00     0.059 C 
ATOM     29  O   UNL     1      36.760 -21.017  37.301  0.00  0.00    -0.246 OA
ATOM     30  O   UNL     1      35.496 -16.585  37.345  0.00  0.00    -0.268 OA
ATOM     31  N   UNL     1      38.362 -19.417  37.878  0.00  0.00    -0.279 N 
ATOM     32  N   UNL     1      36.132 -18.809  37.323  0.00  0.00    -0.275 N 
ATOM     33  C   UNL     1      37.069 -19.838  37.489  0.00  0.00     0.331 A 
ATOM     34  C   UNL     1      38.628 -18.067  38.071  0.00  0.00     0.104 A 
ATOM     35  C   UNL     1      37.724 -17.097  37.909  0.00  0.00     0.092 A 
ATOM     36  C   UNL     1      36.350 -17.451  37.502  0.00  0.00     0.250 A 
ATOM     37  H   UNL     1      35.197 -19.088  37.043  0.00  0.00     0.173 HD
ATOM     38  O   UNL     1      42.573 -19.841  36.388  0.00  0.00    -0.389 OA
ATOM     39  H   UNL     1      43.227 -19.167  36.637  0.00  0.00     0.210 HD
ENDROOT
TORSDOF 12
ENDMDL
MODEL 3
REMARK VINA RESULT:      -8.0      4.204      7.620
REMARK  0 active torsions:
REMARK  status: ('A' for Active; 'I' for Inactive)
REMARK       I    between atoms: O_1  and  P_2 
REMARK       I    between atoms: O_1  and  C_21 
REMARK       I    between atoms: P_2  and  N_4 
REMARK       I    between atoms: P_2  and  O_14 
REMARK       I    between atoms: N_4  and  C_6 
REMARK       I    between atoms: C_6  and  C_9 
REMARK       I    between atoms: C_9  and  O_10 
REMARK       I    between atoms: O_10  and  C_11 
REMARK       I    between atoms: O_14  and  C_15 
REMARK       I    between atoms: C_21  and  C_27 
REMARK       I    between atoms: C_25  and  O_38 
REMARK       I    between atoms: C_26  and  N_31 
ROOT
ATOM      1  O   UNL     1      36.961 -18.007  36.791  0.00  0.00    -0.295 OA
ATOM      2  P   UNL     1      36.919 -16.595  35.980  0.00  0.00     0.436 P 
ATOM      3  O   UNL     1      36.593 -16.835  34.528  0.00  0.00    -0.234 OA
ATOM      4  N   UNL     1      35.914 -15.575  36.819  0.00  0.00    -0.314 N 
ATOM      5  H   UNL     1      34.924 -15.819  36.795  0.00  0.00     0.166 HD
ATOM      6  C   UNL     1      36.091 -14.139  36.666  0.00  0.00     0.183 C 
ATOM      7  C   UNL     1      34.761 -13.431  36.879  0.00  0.00     0.043 C 
ATOM      8  O   UNL     1      37.281 -14.169  38.795  0.00  0.00    -0.263 OA
ATOM      9  C   UNL     1      37.114 -13.678  37.686  0.00  0.00     0.281 C 
ATOM     10  O   UNL     1      37.822 -12.629  37.169  0.00  0.00    -0.315 OA
ATOM     11  C   UNL     1      38.835 -12.086  38.023  0.00  0.00     0.123 C 
ATOM     12  C   UNL     1      38.226 -11.000  38.896  0.00  0.00     0.040 C 
ATOM     13  C   UNL     1      39.976 -11.553  37.169  0.00  0.00     0.040 C 
ATOM     14  O   UNL     1      38.440 -16.073  36.189  0.00  0.00    -0.256 OA
ATOM     15  C   UNL     1      39.560 -16.651  35.654  0.00  0.00     0.080 A 
ATOM     16  C   UNL     1      39.444 -17.787  34.854  0.00  0.00     0.037 A 
ATOM     17  C   UNL     1      40.817 -16.103  35.909  0.00  0.00     0.037 A 
ATOM     18  C   UNL     1      40.584 -18.376  34.308  0.00  0.00     0.003 A 
ATOM     19  C   UNL     1      41.958 -16.692  35.365  0.00  0.00     0.003 A 
ATOM     20  C   UNL     1      41.842 -17.829  34.564  0.00  0.00     0.000 A 
ATOM     21  C   UNL     1      37.006 -18.017  38.209  0.00  0.00     0.214 C 
ATOM     22  F   UNL     1      38.745 -21.524  39.967  0.00  0.00    -0.236 F 
ATOM     23  O   UNL     1      39.103 -19.220  38.172  0.00  0.00    -0.353 OA
ATOM     24  C   UNL     1      39.097 -20.247  40.311  0.00  0.00     0.172 C 
ATOM     25  C   UNL     1      37.872 -19.363  40.180  0.00  0.00     0.193 C 
ATOM     26  C   UNL     1      39.990 -19.714  39.195  0.00  0.00     0.274 C 
ATOM     27  C   UNL     1      37.754 -19.256  38.669  0.00  0.00     0.180 C 
ATOM     28  C   UNL     1      39.702 -20.309  41.700  0.00  0.00     0.059 C 
ATOM     29  O   UNL     1      42.670 -20.037  40.024  0.00  0.00    -0.246 OA
ATOM     30  O   UNL     1      43.199 -15.510  40.705  0.00  0.00    -0.268 OA
ATOM     31  N   UNL     1      40.851 -18.636  39.594  0.00  0.00    -0.279 N 
ATOM     32  N   UNL     1      42.932 -17.782  40.363  0.00  0.00    -0.275 N 
ATOM     33  C   UNL     1      42.181 -18.906  39.993  0.00  0.00     0.331 A 
ATOM     34  C   UNL     1      40.377 -17.330  39.585  0.00  0.00     0.104 A 
ATOM     35  C   UNL     1      41.104 -16.268  39.940  0.00  0.00     0.092 A 
ATOM     36  C   UNL     1      42.502 -16.464  40.371  0.00  0.00     0.250 A 
ATOM     37  H   UNL     1      43.890 -17.952  40.654  0.00  0.00     0.173 HD
ATOM     38  O   UNL     1      36.715 -19.933  40.754  0.00  0.00    -0.389 OA
ATOM     39  H   UNL     1      35.969 -19.338  40.568  0.00  0.00     0.210 HD
ENDROOT
TORSDOF 12
ENDMDL
MODEL 4
REMARK VINA RESULT:      -7.9      4.032      7.674
REMARK  0 active torsions:
REMARK  status: ('A' for Active; 'I' for Inactive)
REMARK       I    between atoms: O_1  and  P_2 
REMARK       I    between atoms: O_1  and  C_21 
REMARK       I    between atoms: P_2  and  N_4 
REMARK       I    between atoms: P_2  and  O_14 
REMARK       I    between atoms: N_4  and  C_6 
REMARK       I    between atoms: C_6  and  C_9 
REMARK       I    between atoms: C_9  and  O_10 
REMARK       I    between atoms: O_10  and  C_11 
REMARK       I    between atoms: O_14  and  C_15 
REMARK       I    between atoms: C_21  and  C_27 
REMARK       I    between atoms: C_25  and  O_38 
REMARK       I    between atoms: C_26  and  N_31 
ROOT
ATOM      1  O   UNL     1      42.688 -17.928  38.363  0.00  0.00    -0.295 OA
ATOM      2  P   UNL     1      42.574 -17.571  39.948  0.00  0.00     0.436 P 
ATOM      3  O   UNL     1      43.280 -18.618  40.773  0.00  0.00    -0.234 OA
ATOM      4  N   UNL     1      43.075 -16.001  40.137  0.00  0.00    -0.314 N 
ATOM      5  H   UNL     1      44.071 -15.838  39.994  0.00  0.00     0.166 HD
ATOM      6  C   UNL     1      42.594 -15.248  41.287  0.00  0.00     0.183 C 
ATOM      7  C   UNL     1      43.624 -14.199  41.682  0.00  0.00     0.043 C 
ATOM      8  O   UNL     1      40.982 -14.198  39.787  0.00  0.00    -0.263 OA
ATOM      9  C   UNL     1      41.280 -14.594  40.907  0.00  0.00     0.281 C 
ATOM     10  O   UNL     1      40.479 -14.519  42.013  0.00  0.00    -0.315 OA
ATOM     11  C   UNL     1      39.194 -13.925  41.806  0.00  0.00     0.123 C 
ATOM     12  C   UNL     1      39.297 -12.422  42.012  0.00  0.00     0.040 C 
ATOM     13  C   UNL     1      38.190 -14.558  42.758  0.00  0.00     0.040 C 
ATOM     14  O   UNL     1      40.967 -17.607  40.159  0.00  0.00    -0.256 OA
ATOM     15  C   UNL     1      40.179 -18.724  40.083  0.00  0.00     0.080 A 
ATOM     16  C   UNL     1      40.753 -19.964  39.803  0.00  0.00     0.037 A 
ATOM     17  C   UNL     1      38.803 -18.622  40.286  0.00  0.00     0.037 A 
ATOM     18  C   UNL     1      39.951 -21.102  39.726  0.00  0.00     0.003 A 
ATOM     19  C   UNL     1      38.000 -19.760  40.207  0.00  0.00     0.003 A 
ATOM     20  C   UNL     1      38.574 -21.000  39.928  0.00  0.00     0.000 A 
ATOM     21  C   UNL     1      42.315 -16.969  37.386  0.00  0.00     0.214 C 
ATOM     22  F   UNL     1      41.120 -18.585  33.594  0.00  0.00    -0.236 F 
ATOM     23  O   UNL     1      40.643 -18.472  36.496  0.00  0.00    -0.353 OA
ATOM     24  C   UNL     1      40.397 -17.649  34.284  0.00  0.00     0.172 C 
ATOM     25  C   UNL     1      41.366 -16.761  35.041  0.00  0.00     0.193 C 
ATOM     26  C   UNL     1      39.689 -18.381  35.420  0.00  0.00     0.274 C 
ATOM     27  C   UNL     1      41.806 -17.697  36.154  0.00  0.00     0.180 C 
ATOM     28  C   UNL     1      39.517 -16.933  33.278  0.00  0.00     0.059 C 
ATOM     29  O   UNL     1      37.051 -18.920  34.568  0.00  0.00    -0.246 OA
ATOM     30  O   UNL     1      35.291 -15.734  37.395  0.00  0.00    -0.268 OA
ATOM     31  N   UNL     1      38.522 -17.707  35.918  0.00  0.00    -0.279 N 
ATOM     32  N   UNL     1      36.176 -17.332  35.977  0.00  0.00    -0.275 N 
ATOM     33  C   UNL     1      37.243 -18.053  35.423  0.00  0.00     0.331 A 
ATOM     34  C   UNL     1      38.653 -16.718  36.885  0.00  0.00     0.104 A 
ATOM     35  C   UNL     1      37.626 -16.040  37.403  0.00  0.00     0.092 A 
ATOM     36  C   UNL     1      36.257 -16.339  36.940  0.00  0.00     0.250 A 
ATOM     37  H   UNL     1      35.248 -17.564  35.636  0.00  0.00     0.173 HD
ATOM     38  O   UNL     1      42.459 -16.338  34.254  0.00  0.00    -0.389 OA
ATOM     39  H   UNL     1      43.059 -15.835  34.829  0.00  0.00     0.210 HD
ENDROOT
TORSDOF 12
ENDMDL
MODEL 5
REMARK VINA RESULT:      -7.9      2.505      3.750
REMARK  0 active torsions:
REMARK  status: ('A' for Active; 'I' for Inactive)
REMARK       I    between atoms: O_1  and  P_2 
REMARK       I    between atoms: O_1  and  C_21 
REMARK       I    between atoms: P_2  and  N_4 
REMARK       I    between atoms: P_2  and  O_14 
REMARK       I    between atoms: N_4  and  C_6 
REMARK       I    between atoms: C_6  and  C_9 
REMARK       I    between atoms: C_9  and  O_10 
REMARK       I    between atoms: O_10  and  C_11 
REMARK       I    between atoms: O_14  and  C_15 
REMARK       I    between atoms: C_21  and  C_27 
REMARK       I    between atoms: C_25  and  O_38 
REMARK       I    between atoms: C_26  and  N_31 
ROOT
ATOM      1  O   UNL     1      41.383 -18.104  42.141  0.00  0.00    -0.295 OA
ATOM      2  P   UNL     1      40.337 -19.105  41.394  0.00  0.00     0.436 P 
ATOM      3  O   UNL     1      41.073 -20.272  40.785  0.00  0.00    -0.234 OA
ATOM      4  N   UNL     1      39.132 -19.458  42.479  0.00  0.00    -0.314 N 
ATOM      5  H   UNL     1      39.408 -20.049  43.262  0.00  0.00     0.166 HD
ATOM      6  C   UNL     1      37.830 -19.860  41.970  0.00  0.00     0.183 C 
ATOM      7  C   UNL     1      37.145 -20.777  42.974  0.00  0.00     0.043 C 
ATOM      8  O   UNL     1      37.081 -17.578  42.397  0.00  0.00    -0.263 OA
ATOM      9  C   UNL     1      37.007 -18.607  41.738  0.00  0.00     0.281 C 
ATOM     10  O   UNL     1      36.170 -18.810  40.675  0.00  0.00    -0.315 OA
ATOM     11  C   UNL     1      35.328 -17.704  40.332  0.00  0.00     0.123 C 
ATOM     12  C   UNL     1      34.034 -17.794  41.125  0.00  0.00     0.040 C 
ATOM     13  C   UNL     1      35.074 -17.715  38.832  0.00  0.00     0.040 C 
ATOM     14  O   UNL     1      39.714 -18.118  40.268  0.00  0.00    -0.256 OA
ATOM     15  C   UNL     1      40.396 -17.602  39.198  0.00  0.00     0.080 A 
ATOM     16  C   UNL     1      41.741 -17.917  39.010  0.00  0.00     0.037 A 
ATOM     17  C   UNL     1      39.744 -16.761  38.297  0.00  0.00     0.037 A 
ATOM     18  C   UNL     1      42.435 -17.392  37.920  0.00  0.00     0.003 A 
ATOM     19  C   UNL     1      40.437 -16.234  37.207  0.00  0.00     0.003 A 
ATOM     20  C   UNL     1      41.783 -16.550  37.018  0.00  0.00     0.000 A 
ATOM     21  C   UNL     1      40.904 -17.074  42.990  0.00  0.00     0.214 C 
ATOM     22  F   UNL     1      43.525 -13.707  43.447  0.00  0.00    -0.236 F 
ATOM     23  O   UNL     1      41.962 -15.394  41.610  0.00  0.00    -0.353 OA
ATOM     24  C   UNL     1      42.194 -13.599  43.145  0.00  0.00     0.172 C 
ATOM     25  C   UNL     1      41.458 -14.740  43.820  0.00  0.00     0.193 C 
ATOM     26  C   UNL     1      42.040 -13.956  41.670  0.00  0.00     0.274 C 
ATOM     27  C   UNL     1      41.880 -15.911  42.950  0.00  0.00     0.180 C 
ATOM     28  C   UNL     1      41.752 -12.210  43.562  0.00  0.00     0.059 C 
ATOM     29  O   UNL     1      41.953 -11.537  40.215  0.00  0.00    -0.246 OA
ATOM     30  O   UNL     1      37.449 -12.003  39.356  0.00  0.00    -0.268 OA
ATOM     31  N   UNL     1      40.857 -13.422  41.055  0.00  0.00    -0.279 N 
ATOM     32  N   UNL     1      39.709 -11.771  39.788  0.00  0.00    -0.275 N 
ATOM     33  C   UNL     1      40.921 -12.199  40.347  0.00  0.00     0.331 A 
ATOM     34  C   UNL     1      39.654 -14.108  41.155  0.00  0.00     0.104 A 
ATOM     35  C   UNL     1      38.506 -13.687  40.617  0.00  0.00     0.092 A 
ATOM     36  C   UNL     1      38.486 -12.419  39.863  0.00  0.00     0.250 A 
ATOM     37  H   UNL     1      39.732 -10.894  39.276  0.00  0.00     0.173 HD
ATOM     38  O   UNL     1      41.842 -14.926  45.166  0.00  0.00    -0.389 OA
ATOM     39  H   UNL     1      41.378 -15.711  45.500  0.00  0.00     0.210 HD
ENDROOT
TORSDOF 12
ENDMDL
MODEL 6
REMARK VINA RESULT:      -7.7      3.235      6.650
REMARK  0 active torsions:
REMARK  status: ('A' for Active; 'I' for Inactive)
REMARK       I    between atoms: O_1  and  P_2 
REMARK       I    between atoms: O_1  and  C_21 
REMARK       I    between atoms: P_2  and  N_4 
REMARK       I    between atoms: P_2  and  O_14 
REMARK       I    between atoms: N_4  and  C_6 
REMARK       I    between atoms: C_6  and  C_9 
REMARK       I    between atoms: C_9  and  O_10 
REMARK       I    between atoms: O_10  and  C_11 
REMARK       I    between atoms: O_14  and  C_15 
REMARK       I    between atoms: C_21  and  C_27 
REMARK       I    between atoms: C_25  and  O_38 
REMARK       I    between atoms: C_26  and  N_31 
ROOT
ATOM      1  O   UNL     1      40.383 -13.414  38.521  0.00  0.00    -0.295 OA
ATOM      2  P   UNL     1      39.774 -12.827  39.914  0.00  0.00     0.436 P 
ATOM      3  O   UNL     1      40.438 -11.520  40.266  0.00  0.00    -0.234 OA
ATOM      4  N   UNL     1      38.122 -12.816  39.762  0.00  0.00    -0.314 N 
ATOM      5  H   UNL     1      37.746 -12.131  39.107  0.00  0.00     0.166 HD
ATOM      6  C   UNL     1      37.309 -12.866  40.969  0.00  0.00     0.183 C 
ATOM      7  C   UNL     1      35.982 -12.162  40.726  0.00  0.00     0.043 C 
ATOM      8  O   UNL     1      36.995 -15.244  40.527  0.00  0.00    -0.263 OA
ATOM      9  C   UNL     1      37.086 -14.323  41.327  0.00  0.00     0.281 C 
ATOM     10  O   UNL     1      37.006 -14.444  42.687  0.00  0.00    -0.315 OA
ATOM     11  C   UNL     1      36.800 -15.772  43.179  0.00  0.00     0.123 C 
ATOM     12  C   UNL     1      35.307 -16.052  43.255  0.00  0.00     0.040 C 
ATOM     13  C   UNL     1      37.472 -15.914  44.536  0.00  0.00     0.040 C 
ATOM     14  O   UNL     1      40.167 -14.013  40.947  0.00  0.00    -0.256 OA
ATOM     15  C   UNL     1      41.440 -14.342  41.334  0.00  0.00     0.080 A 
ATOM     16  C   UNL     1      42.527 -13.631  40.827  0.00  0.00     0.037 A 
ATOM     17  C   UNL     1      41.646 -15.387  42.233  0.00  0.00     0.037 A 
ATOM     18  C   UNL     1      43.823 -13.966  41.221  0.00  0.00     0.003 A 
ATOM     19  C   UNL     1      42.942 -15.723  42.627  0.00  0.00     0.003 A 
ATOM     20  C   UNL     1      44.030 -15.012  42.121  0.00  0.00     0.000 A 
ATOM     21  C   UNL     1      39.749 -14.500  37.865  0.00  0.00     0.214 C 
ATOM     22  F   UNL     1      42.294 -16.854  35.336  0.00  0.00    -0.236 F 
ATOM     23  O   UNL     1      41.760 -15.830  38.043  0.00  0.00    -0.353 OA
ATOM     24  C   UNL     1      41.455 -17.386  36.278  0.00  0.00     0.172 C 
ATOM     25  C   UNL     1      40.228 -16.501  36.378  0.00  0.00     0.193 C 
ATOM     26  C   UNL     1      42.112 -17.167  37.636  0.00  0.00     0.274 C 
ATOM     27  C   UNL     1      40.798 -15.300  37.114  0.00  0.00     0.180 C 
ATOM     28  C   UNL     1      41.183 -18.822  35.873  0.00  0.00     0.059 C 
ATOM     29  O   UNL     1      43.441 -19.560  38.333  0.00  0.00    -0.246 OA
ATOM     30  O   UNL     1      40.319 -20.566  41.571  0.00  0.00    -0.268 OA
ATOM     31  N   UNL     1      41.669 -18.073  38.659  0.00  0.00    -0.279 N 
ATOM     32  N   UNL     1      41.885 -20.060  39.946  0.00  0.00    -0.275 N 
ATOM     33  C   UNL     1      42.408 -19.248  38.930  0.00  0.00     0.331 A 
ATOM     34  C   UNL     1      40.514 -17.793  39.380  0.00  0.00     0.104 A 
ATOM     35  C   UNL     1      40.028 -18.577  40.345  0.00  0.00     0.092 A 
ATOM     36  C   UNL     1      40.739 -19.823  40.689  0.00  0.00     0.250 A 
ATOM     37  H   UNL     1      42.400 -20.909  40.157  0.00  0.00     0.173 HD
ATOM     38  O   UNL     1      39.703 -16.139  35.119  0.00  0.00    -0.389 OA
ATOM     39  H   UNL     1      38.967 -15.523  35.272  0.00  0.00     0.210 HD
ENDROOT
TORSDOF 12
ENDMDL
MODEL 7
REMARK VINA RESULT:      -7.6      3.051      6.613
REMARK  0 active torsions:
REMARK  status: ('A' for Active; 'I' for Inactive)
REMARK       I    between atoms: O_1  and  P_2 
REMARK       I    between atoms: O_1  and  C_21 
REMARK       I    between atoms: P_2  and  N_4 
REMARK       I    between atoms: P_2  and  O_14 
REMARK       I    between atoms: N_4  and  C_6 
REMARK       I    between atoms: C_6  and  C_9 
REMARK       I    between atoms: C_9  and  O_10 
REMARK       I    between atoms: O_10  and  C_11 
REMARK       I    between atoms: O_14  and  C_15 
REMARK       I    between atoms: C_21  and  C_27 
REMARK       I    between atoms: C_25  and  O_38 
REMARK       I    between atoms: C_26  and  N_31 
ROOT
ATOM      1  O   UNL     1      41.972 -14.455  40.032  0.00  0.00    -0.295 OA
ATOM      2  P   UNL     1      40.911 -13.272  40.390  0.00  0.00     0.436 P 
ATOM      3  O   UNL     1      41.537 -12.272  41.329  0.00  0.00    -0.234 OA
ATOM      4  N   UNL     1      40.321 -12.688  38.953  0.00  0.00    -0.314 N 
ATOM      5  H   UNL     1      40.986 -12.160  38.389  0.00  0.00     0.166 HD
ATOM      6  C   UNL     1      39.017 -12.042  38.944  0.00  0.00     0.183 C 
ATOM      7  C   UNL     1      38.963 -11.007  37.830  0.00  0.00     0.043 C 
ATOM      8  O   UNL     1      38.109 -14.134  38.078  0.00  0.00    -0.263 OA
ATOM      9  C   UNL     1      37.962 -13.112  38.735  0.00  0.00     0.281 C 
ATOM     10  O   UNL     1      36.822 -12.754  39.400  0.00  0.00    -0.315 OA
ATOM     11  C   UNL     1      35.732 -13.676  39.298  0.00  0.00     0.123 C 
ATOM     12  C   UNL     1      34.899 -13.333  38.073  0.00  0.00     0.040 C 
ATOM     13  C   UNL     1      34.908 -13.620  40.576  0.00  0.00     0.040 C 
ATOM     14  O   UNL     1      39.727 -14.123  41.101  0.00  0.00    -0.256 OA
ATOM     15  C   UNL     1      39.823 -14.765  42.307  0.00  0.00     0.080 A 
ATOM     16  C   UNL     1      41.015 -14.717  43.029  0.00  0.00     0.037 A 
ATOM     17  C   UNL     1      38.729 -15.466  42.812  0.00  0.00     0.037 A 
ATOM     18  C   UNL     1      41.113 -15.371  44.257  0.00  0.00     0.003 A 
ATOM     19  C   UNL     1      38.826 -16.120  44.040  0.00  0.00     0.003 A 
ATOM     20  C   UNL     1      40.018 -16.073  44.763  0.00  0.00     0.000 A 
ATOM     21  C   UNL     1      41.697 -15.370  38.984  0.00  0.00     0.214 C 
ATOM     22  F   UNL     1      43.641 -19.181  39.317  0.00  0.00    -0.236 F 
ATOM     23  O   UNL     1      41.802 -17.227  40.528  0.00  0.00    -0.353 OA
ATOM     24  C   UNL     1      42.304 -19.029  39.066  0.00  0.00     0.172 C 
ATOM     25  C   UNL     1      42.113 -17.764  38.251  0.00  0.00     0.193 C 
ATOM     26  C   UNL     1      41.642 -18.653  40.388  0.00  0.00     0.274 C 
ATOM     27  C   UNL     1      42.354 -16.700  39.308  0.00  0.00     0.180 C 
ATOM     28  C   UNL     1      41.826 -20.304  38.400  0.00  0.00     0.059 C 
ATOM     29  O   UNL     1      40.556 -21.014  41.495  0.00  0.00    -0.246 OA
ATOM     30  O   UNL     1      36.242 -19.683  40.563  0.00  0.00    -0.268 OA
ATOM     31  N   UNL     1      40.237 -18.949  40.448  0.00  0.00    -0.279 N 
ATOM     32  N   UNL     1      38.407 -20.349  41.030  0.00  0.00    -0.275 N 
ATOM     33  C   UNL     1      39.797 -20.163  41.024  0.00  0.00     0.331 A 
ATOM     34  C   UNL     1      39.316 -18.041  39.942  0.00  0.00     0.104 A 
ATOM     35  C   UNL     1      37.994 -18.233  39.954  0.00  0.00     0.092 A 
ATOM     36  C   UNL     1      37.451 -19.476  40.537  0.00  0.00     0.250 A 
ATOM     37  H   UNL     1      38.068 -21.215  41.438  0.00  0.00     0.173 HD
ATOM     38  O   UNL     1      43.027 -17.652  37.182  0.00  0.00    -0.389 OA
ATOM     39  H   UNL     1      42.881 -16.791  36.757  0.00  0.00     0.210 HD
ENDROOT
TORSDOF 12
ENDMDL
MODEL 8
REMARK VINA RESULT:      -7.5      5.492      7.966
REMARK  0 active torsions:
REMARK  status: ('A' for Active; 'I' for Inactive)
REMARK       I    between atoms: O_1  and  P_2 
REMARK       I    between atoms: O_1  and  C_21 
REMARK       I    between atoms: P_2  and  N_4 
REMARK       I    between atoms: P_2  and  O_14 
REMARK       I    between atoms: N_4  and  C_6 
REMARK       I    between atoms: C_6  and  C_9 
REMARK       I    between atoms: C_9  and  O_10 
REMARK       I    between atoms: O_10  and  C_11 
REMARK       I    between atoms: O_14  and  C_15 
REMARK       I    between atoms: C_21  and  C_27 
REMARK       I    between atoms: C_25  and  O_38 
REMARK       I    between atoms: C_26  and  N_31 
ROOT
ATOM      1  O   UNL     1      38.031 -21.402  36.463  0.00  0.00    -0.295 OA
ATOM      2  P   UNL     1      37.142 -20.998  35.160  0.00  0.00     0.436 P 
ATOM      3  O   UNL     1      37.382 -21.977  34.038  0.00  0.00    -0.234 OA
ATOM      4  N   UNL     1      35.575 -20.809  35.672  0.00  0.00    -0.314 N 
ATOM      5  H   UNL     1      35.098 -21.667  35.948  0.00  0.00     0.166 HD
ATOM      6  C   UNL     1      34.685 -19.957  34.898  0.00  0.00     0.183 C 
ATOM      7  C   UNL     1      33.249 -20.439  35.051  0.00  0.00     0.043 C 
ATOM      8  O   UNL     1      35.081 -18.218  36.562  0.00  0.00    -0.263 OA
ATOM      9  C   UNL     1      34.831 -18.536  35.406  0.00  0.00     0.281 C 
ATOM     10  O   UNL     1      34.645 -17.666  34.368  0.00  0.00    -0.315 OA
ATOM     11  C   UNL     1      34.758 -16.278  34.696  0.00  0.00     0.123 C 
ATOM     12  C   UNL     1      33.400 -15.753  35.133  0.00  0.00     0.040 C 
ATOM     13  C   UNL     1      35.297 -15.520  33.491  0.00  0.00     0.040 C 
ATOM     14  O   UNL     1      37.733 -19.525  34.825  0.00  0.00    -0.256 OA
ATOM     15  C   UNL     1      38.998 -19.260  34.373  0.00  0.00     0.080 A 
ATOM     16  C   UNL     1      39.898 -20.305  34.165  0.00  0.00     0.037 A 
ATOM     17  C   UNL     1      39.387 -17.945  34.121  0.00  0.00     0.037 A 
ATOM     18  C   UNL     1      41.186 -20.035  33.705  0.00  0.00     0.003 A 
ATOM     19  C   UNL     1      40.675 -17.674  33.662  0.00  0.00     0.003 A 
ATOM     20  C   UNL     1      41.575 -18.719  33.453  0.00  0.00     0.000 A 
ATOM     21  C   UNL     1      37.791 -20.777  37.714  0.00  0.00     0.214 C 
ATOM     22  F   UNL     1      41.136 -20.709  40.402  0.00  0.00    -0.236 F 
ATOM     23  O   UNL     1      40.059 -19.940  37.773  0.00  0.00    -0.353 OA
ATOM     24  C   UNL     1      40.379 -19.608  40.101  0.00  0.00     0.172 C 
ATOM     25  C   UNL     1      38.954 -20.062  39.854  0.00  0.00     0.193 C 
ATOM     26  C   UNL     1      40.804 -19.141  38.713  0.00  0.00     0.274 C 
ATOM     27  C   UNL     1      39.093 -20.725  38.494  0.00  0.00     0.180 C 
ATOM     28  C   UNL     1      40.554 -18.621  41.238  0.00  0.00     0.059 C 
ATOM     29  O   UNL     1      42.656 -17.035  39.055  0.00  0.00    -0.246 OA
ATOM     30  O   UNL     1      39.603 -13.880  37.651  0.00  0.00    -0.268 OA
ATOM     31  N   UNL     1      40.520 -17.759  38.443  0.00  0.00    -0.279 N 
ATOM     32  N   UNL     1      41.134 -15.465  38.355  0.00  0.00    -0.275 N 
ATOM     33  C   UNL     1      41.520 -16.780  38.649  0.00  0.00     0.331 A 
ATOM     34  C   UNL     1      39.264 -17.388  37.980  0.00  0.00     0.104 A 
ATOM     35  C   UNL     1      38.911 -16.130  37.705  0.00  0.00     0.092 A 
ATOM     36  C   UNL     1      39.895 -15.047  37.894  0.00  0.00     0.250 A 
ATOM     37  H   UNL     1      41.836 -14.745  38.497  0.00  0.00     0.173 HD
ATOM     38  O   UNL     1      38.485 -20.969  40.830  0.00  0.00    -0.389 OA
ATOM     39  H   UNL     1      37.597 -21.258  40.562  0.00  0.00     0.210 HD
ENDROOT
TORSDOF 12
ENDMDL
MODEL 9
REMARK VINA RESULT:      -7.3      3.652      6.233
REMARK  0 active torsions:
REMARK  status: ('A' for Active; 'I' for Inactive)
REMARK       I    between atoms: O_1  and  P_2 
REMARK       I    between atoms: O_1  and  C_21 
REMARK       I    between atoms: P_2  and  N_4 
REMARK       I    between atoms: P_2  and  O_14 
REMARK       I    between atoms: N_4  and  C_6 
REMARK       I    between atoms: C_6  and  C_9 
REMARK       I    between atoms: C_9  and  O_10 
REMARK       I    between atoms: O_10  and  C_11 
REMARK       I    between atoms: O_14  and  C_15 
REMARK       I    between atoms: C_21  and  C_27 
REMARK       I    between atoms: C_25  and  O_38 
REMARK       I    between atoms: C_26  and  N_31 
ROOT
ATOM      1  O   UNL     1      41.075 -19.973  40.906  0.00  0.00    -0.295 OA
ATOM      2  P   UNL     1      41.759 -19.783  39.440  0.00  0.00     0.436 P 
ATOM      3  O   UNL     1      43.263 -19.790  39.559  0.00  0.00    -0.234 OA
ATOM      4  N   UNL     1      41.079 -20.910  38.430  0.00  0.00    -0.314 N 
ATOM      5  H   UNL     1      41.336 -21.879  38.617  0.00  0.00     0.166 HD
ATOM      6  C   UNL     1      41.074 -20.651  36.998  0.00  0.00     0.183 C 
ATOM      7  C   UNL     1      41.098 -21.969  36.236  0.00  0.00     0.043 C 
ATOM      8  O   UNL     1      38.747 -19.962  37.242  0.00  0.00    -0.263 OA
ATOM      9  C   UNL     1      39.822 -19.862  36.665  0.00  0.00     0.281 C 
ATOM     10  O   UNL     1      40.087 -19.019  35.621  0.00  0.00    -0.315 OA
ATOM     11  C   UNL     1      38.993 -18.200  35.196  0.00  0.00     0.123 C 
ATOM     12  C   UNL     1      38.188 -18.946  34.143  0.00  0.00     0.040 C 
ATOM     13  C   UNL     1      39.533 -16.880  34.665  0.00  0.00     0.040 C 
ATOM     14  O   UNL     1      41.184 -18.328  39.016  0.00  0.00    -0.256 OA
ATOM     15  C   UNL     1      41.509 -17.139  39.614  0.00  0.00     0.080 A 
ATOM     16  C   UNL     1      42.404 -17.118  40.683  0.00  0.00     0.037 A 
ATOM     17  C   UNL     1      40.944 -15.950  39.153  0.00  0.00     0.037 A 
ATOM     18  C   UNL     1      42.735 -15.908  41.292  0.00  0.00     0.003 A 
ATOM     19  C   UNL     1      41.273 -14.740  39.762  0.00  0.00     0.003 A 
ATOM     20  C   UNL     1      42.169 -14.718  40.832  0.00  0.00     0.000 A 
ATOM     21  C   UNL     1      39.687 -20.242  41.018  0.00  0.00     0.214 C 
ATOM     22  F   UNL     1      37.883 -19.063  44.729  0.00  0.00    -0.236 F 
ATOM     23  O   UNL     1      39.366 -18.233  42.326  0.00  0.00    -0.353 OA
ATOM     24  C   UNL     1      37.369 -18.749  43.500  0.00  0.00     0.172 C 
ATOM     25  C   UNL     1      37.691 -19.881  42.545  0.00  0.00     0.193 C 
ATOM     26  C   UNL     1      38.218 -17.613  42.938  0.00  0.00     0.274 C 
ATOM     27  C   UNL     1      39.178 -19.660  42.325  0.00  0.00     0.180 C 
ATOM     28  C   UNL     1      35.891 -18.468  43.692  0.00  0.00     0.059 C 
ATOM     29  O   UNL     1      36.856 -15.195  43.462  0.00  0.00    -0.246 OA
ATOM     30  O   UNL     1      35.714 -14.664  39.029  0.00  0.00    -0.268 OA
ATOM     31  N   UNL     1      37.556 -16.822  41.938  0.00  0.00    -0.279 N 
ATOM     32  N   UNL     1      36.288 -14.932  41.253  0.00  0.00    -0.275 N 
ATOM     33  C   UNL     1      36.901 -15.624  42.307  0.00  0.00     0.331 A 
ATOM     34  C   UNL     1      37.562 -17.234  40.612  0.00  0.00     0.104 A 
ATOM     35  C   UNL     1      36.973 -16.564  39.618  0.00  0.00     0.092 A 
ATOM     36  C   UNL     1      36.266 -15.304  39.918  0.00  0.00     0.250 A 
ATOM     37  H   UNL     1      35.811 -14.069  41.495  0.00  0.00     0.173 HD
ATOM     38  O   UNL     1      37.430 -21.157  43.091  0.00  0.00    -0.389 OA
ATOM     39  H   UNL     1      37.724 -21.820  42.445  0.00  0.00     0.210 HD
ENDROOT
TORSDOF 12
ENDMDL
MODEL 10
REMARK VINA RESULT:      -7.2      4.134      7.570
REMARK  0 active torsions:
REMARK  status: ('A' for Active; 'I' for Inactive)
REMARK       I    between atoms: O_1  and  P_2 
REMARK       I    between atoms: O_1  and  C_21 
REMARK       I    between atoms: P_2  and  N_4 
REMARK       I    between atoms: P_2  and  O_14 
REMARK       I    between atoms: N_4  and  C_6 
REMARK       I    between atoms: C_6  and  C_9 
REMARK       I    between atoms: C_9  and  O_10 
REMARK       I    between atoms: O_10  and  C_11 
REMARK       I    between atoms: O_14  and  C_15 
REMARK       I    between atoms: C_21  and  C_27 
REMARK       I    between atoms: C_25  and  O_38 
REMARK       I    between atoms: C_26  and  N_31 
ROOT
ATOM      1  O   UNL     1      40.362 -20.133  38.574  0.00  0.00    -0.295 OA
ATOM      2  P   UNL     1      40.969 -19.759  40.038  0.00  0.00     0.436 P 
ATOM      3  O   UNL     1      40.694 -20.871  41.018  0.00  0.00    -0.234 OA
ATOM      4  N   UNL     1      42.555 -19.325  39.818  0.00  0.00    -0.314 N 
ATOM      5  H   UNL     1      43.185 -20.084  39.557  0.00  0.00     0.166 HD
ATOM      6  C   UNL     1      43.184 -18.454  40.799  0.00  0.00     0.183 C 
ATOM      7  C   UNL     1      44.680 -18.735  40.854  0.00  0.00     0.043 C 
ATOM      8  O   UNL     1      42.817 -16.614  39.240  0.00  0.00    -0.263 OA
ATOM      9  C   UNL     1      42.922 -17.017  40.392  0.00  0.00     0.281 C 
ATOM     10  O   UNL     1      42.820 -16.243  41.514  0.00  0.00    -0.315 OA
ATOM     11  C   UNL     1      42.566 -14.853  41.286  0.00  0.00     0.123 C 
ATOM     12  C   UNL     1      43.890 -14.121  41.131  0.00  0.00     0.040 C 
ATOM     13  C   UNL     1      41.744 -14.298  42.440  0.00  0.00     0.040 C 
ATOM     14  O   UNL     1      40.133 -18.414  40.387  0.00  0.00    -0.256 OA
ATOM     15  C   UNL     1      38.787 -18.357  40.637  0.00  0.00     0.080 A 
ATOM     16  C   UNL     1      38.021 -19.521  40.602  0.00  0.00     0.037 A 
ATOM     17  C   UNL     1      38.184 -17.133  40.926  0.00  0.00     0.037 A 
ATOM     18  C   UNL     1      36.652 -19.463  40.857  0.00  0.00     0.003 A 
ATOM     19  C   UNL     1      36.814 -17.074  41.180  0.00  0.00     0.003 A 
ATOM     20  C   UNL     1      36.047 -18.239  41.146  0.00  0.00     0.000 A 
ATOM     21  C   UNL     1      40.707 -19.356  37.437  0.00  0.00     0.214 C 
ATOM     22  F   UNL     1      37.852 -19.425  34.234  0.00  0.00    -0.236 F 
ATOM     23  O   UNL     1      38.382 -18.806  37.062  0.00  0.00    -0.353 OA
ATOM     24  C   UNL     1      38.390 -18.277  34.749  0.00  0.00     0.172 C 
ATOM     25  C   UNL     1      39.808 -18.573  35.196  0.00  0.00     0.193 C 
ATOM     26  C   UNL     1      37.690 -18.013  36.078  0.00  0.00     0.274 C 
ATOM     27  C   UNL     1      39.550 -19.386  36.454  0.00  0.00     0.180 C 
ATOM     28  C   UNL     1      38.260 -17.206  33.683  0.00  0.00     0.059 C 
ATOM     29  O   UNL     1      35.640 -16.129  35.599  0.00  0.00    -0.246 OA
ATOM     30  O   UNL     1      37.962 -12.782  37.756  0.00  0.00    -0.268 OA
ATOM     31  N   UNL     1      37.733 -16.642  36.504  0.00  0.00    -0.279 N 
ATOM     32  N   UNL     1      36.798 -14.463  36.674  0.00  0.00    -0.275 N 
ATOM     33  C   UNL     1      36.651 -15.778  36.212  0.00  0.00     0.331 A 
ATOM     34  C   UNL     1      38.836 -16.167  37.203  0.00  0.00     0.104 A 
ATOM     35  C   UNL     1      38.962 -14.911  37.637  0.00  0.00     0.092 A 
ATOM     36  C   UNL     1      37.878 -13.945  37.372  0.00  0.00     0.250 A 
ATOM     37  H   UNL     1      36.033 -13.825  36.475  0.00  0.00     0.173 HD
ATOM     38  O   UNL     1      40.547 -19.308  34.244  0.00  0.00    -0.389 OA
ATOM     39  H   UNL     1      41.413 -19.511  34.634  0.00  0.00     0.210 HD
ENDROOT
TORSDOF 12
ENDMDL
